-- This reservoir simulation deck is made available under the Open Database
-- License: http://opendatacommons.org/licenses/odbl/1.0/. Any rights in
-- individual contents of the database are licensed under the Database Contents
-- License: http://opendatacommons.org/licenses/dbcl/1.0/

-- Copyright (C) 2024 Equinor 

-- This deck is used for testing reservoir coupling. This is one of 2 slave 
-- decks started with the master deck RC-01_MAST_PRED.DATA. This deck is a pure 
-- prediction case (no history).

------------------------------------------------------------------------------------------------

------------------------------------------------------------------------------------------------
RUNSPEC
------------------------------------------------------------------------------------------------

DIMENS
 12 33 14 /

OIL
WATER
GAS
DISGAS
VAPOIL

METRIC

START
 1 'JAN' 2019 /

--
GRIDOPTS
'YES'		0 / 


EQLDIMS
 1 1*  25 /


--
REGDIMS
-- max. ntfip  nmfipr  max. nrfreg   max. ntfreg
   1          4       1*            72    /

--
--
WELLDIMS
--max.well  max.con/well  max.grup  max.w/grup
   4        15            10        4   /

--
TABDIMS
--ntsfun     ntpvt  max.nssfun  max.nppvt  max.ntfip  max.nrpvt
  1          1      50          60         2         60 /

AQUDIMS
-- MXNAQN   MXNAQC   NIFTBL  NRIFTB   NANAQU    NNCAMAX
    1*       1*        5       100      1         1000 /

--

VFPPDIMS
--max.rate  max.THP   max.fw   max.fg   max.ALQ    max.tabs
  25        15        15       15       0          60       /


FAULTDIM
 10 /
--
UNIFIN
UNIFOUT


NETWORK
 3 2 /

------------------------------------------------------------------------------------------------
GRID
------------------------------------------------------------------------------------------------

--
NEWTRAN

--
GRIDFILE
 0  1 /

--
GRIDUNIT
METRES  /

--
INIT



INCLUDE
 'include/grid_12x33x14.grdecl' /

INCLUDE
 'include/test_12x33x14.poro' /

INCLUDE
 'include/test_12x33x14.permx' /
 
INCLUDE
 'include/test_12x33x14.ntg' /

COPY
 PERMX PERMY /
 PERMX PERMZ /
/

MULTIPLY
 'PERMZ' 0.1 /
/ 


------------------------------------------------------------------------------------------------  
EDIT
------------------------------------------------------------------------------------------------


------------------------------------------------------------------------------------------------
PROPS
------------------------------------------------------------------------------------------------

NOECHO


--   REF.PRES.   COMPR.
ROCK
      310.0     4.84E-5 /


INCLUDE
 './include/pvt_mod2.inc' /

INCLUDE
 'include/scal_mod2.inc' /



FILLEPS


------------------------------------------------------------------------------------------------
REGIONS
------------------------------------------------------------------------------------------------

EQLNUM
 5544*1 /
 

------------------------------------------------------------------------------------------------
SOLUTION
------------------------------------------------------------------------------------------------

RPTRST
 BASIC=2 'FIPOIL' 'FIP'  /

EQUIL
-- Datum    P     woc     Pc   goc    Pc  Rsvd  Rvvd
2671.0   310.0   2671.0   0.0  2671.0  0.0   1   0   0 /   

PBVD
  2500.0 150.0
  2750.0 200.0
/

PDVD
  2500.0 100.0
  2750.0 200.0
/




------------------------------------------------------------------------------------------------
SUMMARY
------------------------------------------------------------------------------------------------

INCLUDE
 './include/summary.inc' /

GOPGR
/

------------------------------------------------------------------------------------------------
SCHEDULE
------------------------------------------------------------------------------------------------

GRUPTREE
 'MOD2'  'FIELD'  /
 'E1'    'MOD2'  /
/ 

GRUPSLAV
 'E1'  'E1_M' /
/


INCLUDE
 'include/well_e1h_vfp.inc' /

INCLUDE
 'include/well_e2h_vfp.inc' /


WELSPECS 
  'E-1H'   'E1'   8   8  2551.76       'GAS'  2*      'STOP'  4* /
/

COMPDAT 
-- WELL     I   J  K1   K2            Sat.   CF    DIAM   KH   SKIN  ND    DIR    Ro 
   'E-1H'  8   8   1   12      'OPEN'  1*    1*   0.216    1*   2*         'X'     1* /
/


WCONPROD
  'E-1H'  'OPEN'  'GRAT'  5000.0 1*  4.0E6 2*    1*  10.0  1 /
/  

DATES
 1 FEB 2019 /
/

WELSPECS 
  'E-2H'   'E1'   7  27  2544.75     'GAS'  2*      'STOP'  4* /
/

COMPDAT 
-- WELL     I   J  K1   K2            Sat.   CF    DIAM   KH   SKIN  ND    DIR    Ro 
   'E-2H'  7  27   1   10      'OPEN'  1*    1*   0.216    1*   2*         'X'     1* /
/


WCONPROD
  'E-2H'  'OPEN'  'GRAT'  5000.0 1*  4.0E6 2*    1*  10.0  2 /
/  
 
DATES
 1 MAR 2019 /
 1 APR 2019 /
 1 MAY 2019 /
 1 JUN 2019 /
 1 JUL 2019 /
 1 AUG 2019 /
 1 SEP 2019 /
 1 OCT 2019 /
 1 NOV 2019 /
 1 DEC 2019 /
/

DATES
 1 JAN 2020 /
 1 FEB 2020 /
 1 MAR 2020 /
 1 APR 2020 /
 1 MAY 2020 /
 1 JUN 2020 /
 1 JUL 2020 /
 1 AUG 2020 /
 1 SEP 2020 /
 1 OCT 2020 /
 1 NOV 2020 /
 1 DEC 2020 /
/

DATES
 1 JAN 2021 /
 1 FEB 2021 /
 1 MAR 2021 /
 1 APR 2021 /
 1 MAY 2021 /
 1 JUN 2021 /
 1 JUL 2021 /
 1 AUG 2021 /
 1 SEP 2021 /
 1 OCT 2021 /
 1 NOV 2021 /
 1 DEC 2021 /
/

END

