-- This reservoir simulation deck is made available under the Open Database
-- License: http://opendatacommons.org/licenses/odbl/1.0/. Any rights in
-- individual contents of the database are licensed under the Database Contents
-- License: http://opendatacommons.org/licenses/dbcl/1.0/

-- Copyright (C) 2023 NORCE

-- 2D vertical dispersion test problem
----------------------------------------------------------------------------
RUNSPEC
----------------------------------------------------------------------------
DIMENS 
50 1 50 /

EQLDIMS
/

TABDIMS
/

OIL
GAS
CO2STORE
DIFFUSE
DISGAS

METRIC

START
1 'JAN' 2025 /

WELLDIMS
1 1 1 1 /

UNIFIN
UNIFOUT
----------------------------------------------------------------------------
GRID
----------------------------------------------------------------------------
INIT
DX
2500*0.01 /

DY
2500*0.01 /

DZ
2500*0.01 /

TOPS
50*0 /

PERMX
2500*4E+06 /

PORO
2500*0.4 /

COPY 
PERMX PERMY /
PERMX PERMZ /
/

DISPERC
2500*1 /
----------------------------------------------------------------------------
EDIT
----------------------------------------------------------------------------
OPERATE
PORV 1* 1* 1* 1* 50 50 ADDX PORV 1E+10 /
/ 
----------------------------------------------------------------------------
PROPS
----------------------------------------------------------------------------
SGOF
0.000000E+00 0.000000E+00 1.000000E+00 3.060000E-03 
1.000000E-01 0.000000E+00 1.000000E+00 3.060000E-03 
1.433333E-01 1.309457E-02 9.178350E-01 3.178853E-03 
1.866667E-01 3.703704E-02 8.380525E-01 3.309963E-03 
2.300000E-01 6.804138E-02 7.607258E-01 3.455484E-03 
2.733333E-01 1.047566E-01 6.859355E-01 3.618132E-03 
3.166667E-01 1.464017E-01 6.137709E-01 3.801376E-03 
3.600000E-01 1.924501E-01 5.443311E-01 4.009734E-03 
4.033333E-01 2.425148E-01 4.777275E-01 4.249208E-03 
4.466667E-01 2.962963E-01 4.140867E-01 4.527965E-03 
4.900000E-01 3.535534E-01 3.535534E-01 4.857447E-03 
5.333333E-01 4.140867E-01 2.962963E-01 5.254238E-03 
5.766667E-01 4.777275E-01 2.425148E-01 5.743427E-03 
6.200000E-01 5.443311E-01 1.924501E-01 6.365056E-03 
6.633333E-01 6.137709E-01 1.464017E-01 7.187697E-03 
7.066667E-01 6.859355E-01 1.047566E-01 8.340584E-03 
7.500000E-01 7.607258E-01 6.804138E-02 1.010390E-02 
7.933333E-01 8.380525E-01 3.703704E-02 1.323985E-02 
8.366667E-01 9.178350E-01 1.309457E-02 2.101695E-02 
8.800000E-01 1.000000E+00 0.000000E+00 6.592570E-02 /
---------------------------------------------------------------------------
SOLUTION
---------------------------------------------------------------------------
EQUIL
0 2 1 0 0 0 1 1 0 /

RPTRST
'BASIC=2' /

RSVD
0 0
1 0 /

RTEMPVD
0 20
1 20 /
----------------------------------------------------------------------------
SUMMARY
----------------------------------------------------------------------------
FGIP
FGIR
FGIT
WBHP
/
WGIR
/
WGIT
/
----------------------------------------------------------------------------
SCHEDULE
----------------------------------------------------------------------------
RPTRST
'BASIC=2' /

WELSPECS
'INJ0' 'G1' 1 1	1* 'GAS' 9E-07 /
/
COMPDAT
'INJ0' 1 1 1 1 'OPEN' 2* 1.8E-06 /
/
WCONINJE
'INJ0' 'GAS' OPEN 'RATE' 2E-02 1* 5 /
/
TSTEP
0.005 /
WCONINJE
'INJ0' 'GAS' SHUT 'RATE' 2E-02 1* 5 /
/
TSTEP
10*0.05 /