-- This reservoir simulation deck is made available under the Open Database
-- License: http://opendatacommons.org/licenses/odbl/1.0/. Any rights in
-- individual contents of the database are licensed under the Database Contents
-- License: http://opendatacommons.org/licenses/dbcl/1.0/

-- Copyright (C) 2021 Equinor

-- This simulation is based on the data given in 'Comparison of Solutions to a Three-Dimensional
-- Black-Oil Reservoir Simulation Problem' by Aziz S. Odeh, Journal of Petroleum Technology, January 1981

-- Test case for LGR grid,  CARFIN and ENDFIN keyword are used. 
--3D CORNER POINT CASE WITH NON-ACTIVE CELL, LGR on grids 6,6,1:3 and non-active cells are 6,5,1:3 and also non-active from 
--the refined one: 1,1,3  1,1,4  1,2,3  1,2,4  2,2,3  2,2,4   2,1,3  2,1,4 (these are gird blocks from refined parent cell 6,6,2)



---------------------------------------------------------------------------
------------------------ SPE1 - CASE 1 ------------------------------------
---------------------------------------------------------------------------

RUNSPEC
-- -------------------------------------------------------------------------

TITLE
   3D corner point CASE with non-active cell

DIMENS
   20 20 3 /
   
-- The number of equilibration regions is inferred from the EQLDIMS
-- keyword.
EQLDIMS
/

-- The number of PVTW tables is inferred from the TABDIMS keyword;
-- when no data is included in the keyword the default values are used.
TABDIMS
/
NSTACK
25 /
OIL
GAS
WATER
DISGAS
-- As seen from figure 4 in Odeh, GOR is increasing with time,
-- which means that dissolved gas is present

FIELD
LGR
      1         400          10    10    10   10   /
--NOINTERPINTERP
START
   1 'JAN' 2015 /

WELLDIMS
-- Item 1: maximum number of wells in the model
-- 	   - there are two wells in the problem; injector and producer
-- Item 2: maximum number of grid blocks connected to any one well
-- 	   - must be one as the wells are located at specific grid blocks
-- Item 3: maximum number of groups in the model
-- 	   - we are dealing with only one 'group'
-- Item 4: maximum number of wells in any one group
-- 	   - there must be two wells in a group as there are two wells in total
   2 5 1 2 /

UNIFOUT

GRID
NEWTRAN
RPTGRID
  -- Report Levels for Grid Section Data
  -- 
  'DX' 
  'DY' 
  'DZ' 
  'PERMX' 
  'PERMY' 
  'PERMZ' 
  'MULTX' 
  'MULTY' 
  'MULTZ' 
  'PORO' 
  'NTG' 
  'TOPS' 
  'PORV' 
  'DEPTH' 
  'TRANX' 
  'TRANY' 
  'TRANZ' 
   / 

RPTGRIDL
  -- Report Levels for Grid Section Data
  -- 
  'DX' 
  'DY' 
  'DZ' 
  'PERMX' 
  'PERMY' 
  'PERMZ' 
  'MULTX' 
  'MULTY' 
  'MULTZ' 
  'PORO' 
  'NTG' 
  'TOPS' 
  'PORV' 
  'DEPTH' 
  'TRANX' 
  'TRANY' 
  'TRANZ' 
/
CARFIN
-- NAME I1-I2 J1-J2 K1-K2 NX NY NZ
'LGR1'  6  6  6  6  1  3  2  2  6 /
ENDFIN

RPTGRIDL
COORD TRANX TRANY TRANZ MULTX MULTY MULTZ ALLNNC /
-- The INIT keyword is used to request an .INIT file. The .INIT file
-- is written before the simulation actually starts, and contains grid
-- properties and saturation tables as inferred from the input
-- deck. There are no other keywords which can be used to configure
-- exactly what is written to the .INIT file.
INIT


-- -------------------------------------------------------------------------

COORD                                  -- Generated : Petrel
  2*0 8325.013672 2*0 8345.012695 500 0 8335.015625 500 0 8355.014648 1000 0 8345.030273 1000 0 8365.041016 1500 0 8360.020508 1500
  0 8385.018555 2000 0 8375.038086 2000 0 8405.035156 2500 0 8395.024414 2500 0 8430.020508 3000 0 8415.008789 3000 0 8454.952148
  3500 0 8430.027344 3500 0 8460.023437 4000 0 8445.014648 4000 0 8465.026367 4500 0 8455.03125 4500 0 8470.02832 5000 0 8465.022461
  5000 0 8475.029297 5500 0 8470.037109 5500 0 8480.03125 6000 0 8475.020508 6000 0 8485.023437 6500 0 8470.046875 6500 0
  8485.036133 7000 0 8465.035156 7000 0 8485.024414 7500 0 8455.047852 7500 0 8480.038086 8000 0 8445.03125 8000 0 8475.022461 8500
  0 8430.049805 8500 0 8465.041992 9000 0 8415.032227 9000 0 8455.024414 9500 0 8395.047852 9500 0 8440.041016 10000 0 8375.037109
  10000 0 8425.03125 0 500 8317.542969 0 500 8337.955078 2*500 8326.993164 2*500 8347.775391 1000 500 8337.338867 1000 500
  8359.488281 1500 500 8350.225586 1500 500 8376.385742 2000 500 8365.275391 2000 500 8396.581055 2500 500 8383.091797 2500 500
  8419.381836 3000 500 8400.930664 3000 500 8439.02832 3500 500 8416.120117 3500 500 8447.855469 4000 500 8429.208984 4000 500
  8452.412109 4500 500 8439.347656 4500 500 8456.489258 5000 500 8447.020508 5000 500 8460.546875 5500 500 8451.131836 5500 500
  8464.393555 6000 500 8451.764648 6000 500 8467.087891 6500 500 8446.989258 6500 500 8467.063477 7000 500 8440.069336 7000 500
  8465.342773 7500 500 8430.948242 7500 500 8460.963867 8000 500 8419.541016 8000 500 8454.083008 8500 500 8405.214844 8500 500
  8444.289062 9000 500 8389.472656 9000 500 8433.21582 9500 500 8372.536133 9500 500 8421.030273 10000 500 8355.280273 10000 500
  8408.557617 0 1000 8309.051758 0 1000 8329.739258 500 1000 8319.216797 500 1000 8341.264648 2*1000 8329.811523 2*1000 8353.890625
  1500 1000 8342.029297 1500 1000 8369.71875 2000 1000 8356.222656 2000 1000 8388.365234 2500 1000 8372.117187 2500 1000 8408.053711
  3000 1000 8388.021484 3000 1000 8424.806641 3500 1000 8402.186523 3500 1000 8434.851562 4000 1000 8414.042969 4000 1000
  8440.167969 4500 1000 8423.146484 4500 1000 8443.852539 5000 1000 8429.189453 5000 1000 8446.992187 5500 1000 8431.620117 5500
  1000 8449.513672 6000 1000 8430.195312 6000 1000 8450.719727 6500 1000 8424.882812 6500 1000 8449.891602 7000 1000 8417.290039
  7000 1000 8447.170898 7500 1000 8407.896484 7500 1000 8442.249023 8000 1000 8396.613281 8000 1000 8435.130859 8500 1000
  8383.701172 8500 1000 8426.347656 9000 1000 8370.026367 9000 1000 8417.021484 9500 1000 8354.8125 9500 1000 8406.40332 10000 1000
  8338.929687 10000 1000 8395.234375 0 1500 8300.880859 0 1500 8322.462891 500 1500 8311.941406 500 1500 8335.395508 1000 1500
  8322.915039 1000 1500 8348.62793 2*1500 8334.817383 2*1500 8363.704102 2000 1500 8348.043945 2000 1500 8380.517578 2500 1500
  8362.239258 2500 1500 8397.520508 3000 1500 8376.291016 3000 1500 8412.174805 3500 1500 8388.93457 3500 1500 8422.213867 4000 1500
  8399.397461 4000 1500 8428.167969 4500 1500 8407.146484 4500 1500 8431.887695 5000 1500 8411.739258 5000 1500 8434.40625 5500 1500
  8412.817383 5500 1500 8435.904297 6000 1500 8410.379883 6000 1500 8436.060547 6500 1500 8404.881836 6500 1500 8434.522461 7000
  1500 8397.34668 7000 1500 8431.261719 7500 1500 8388.359375 7500 1500 8426.28125 8000 1500 8378.399414 8000 1500 8420.077148 8500
  1500 8367.520508 8500 1500 8413.016602 9000 1500 8354.501953 9000 1500 8404.267578 9500 1500 8340.355469 9500 1500 8394.597656
  10000 1500 8325.185547 10000 1500 8384.120117 0 2000 8293.629883 0 2000 8316.583008 500 2000 8305.361328 500 2000 8330.144531 1000
  2000 8316.65918 1000 2000 8343.599609 1500 2000 8328.302734 1500 2000 8357.93457 2*2000 8340.644531 2*2000 8373.155273 2500 2000
  8353.40625 2500 2000 8388.151367 3000 2000 8365.792969 3000 2000 8401.186523 3500 2000 8376.849609 3500 2000 8410.786133 4000 2000
  8385.836914 4000 2000 8416.959961 4500 2000 8392.220703 4500 2000 8420.729492 5000 2000 8395.628906 5000 2000 8422.931641 5500
  2000 8395.911133 5500 2000 8423.900391 6000 2000 8393.232422 6000 2000 8423.564453 6500 2000 8388.125 6500 2000 8421.78125 7000
  2000 8381.394531 7000 2000 8418.605469 7500 2000 8373.609375 7500 2000 8414.223633 8000 2000 8365.014648 8000 2000 8409.011719
  8500 2000 8354.467773 8500 2000 8402.241211 9000 2000 8341.97168 9000 2000 8393.935547 9500 2000 8328.581055 9500 2000 8384.930664
  10000 2000 8313.90918 10000 2000 8374.917969 0 2500 8287.368164 0 2500 8311.629883 500 2500 8299.537109 500 2500 8325.393555 1000
  2500 8311.042969 1000 2500 8338.833008 1500 2500 8322.457031 1500 2500 8352.540039 2000 2500 8334.056641 2000 2500 8366.526367
  2*2500 8345.640625 2*2500 8380 3000 2500 8356.616211 3000 2500 8391.743164 3500 2500 8366.246094 3500 2500 8400.737305 4000 2500
  8373.892578 4000 2500 8406.849609 4500 2500 8379.109375 4500 2500 8410.671875 5000 2500 8381.686523 5000 2500 8412.841797 5500
  2500 8381.670898 5500 2500 8413.732422 6000 2500 8379.299805 6000 2500 8413.387695 6500 2500 8375.00293 6500 2500 8411.745117 7000
  2500 8369.367187 7000 2500 8408.9375 7500 2500 8362.509766 7500 2500 8405.008789 8000 2500 8354.045898 8000 2500 8399.875 8500
  2500 8343.722656 8500 2500 8393.303711 9000 2500 8331.981445 9000 2500 8385.619141 9500 2500 8319.242187 9500 2500 8377.150391
  10000 2500 8305.019531 10000 2500 8367.516602 0 3000 8282.173828 0 3000 8307.397461 500 3000 8294.580078 500 3000 8321.18457 1000
  3000 8306.177734 1000 3000 8334.492187 1500 3000 8317.363281 1500 3000 8347.65918 2000 3000 8328.341797 2000 3000 8360.666016 2500
  3000 8338.973633 2500 3000 8372.952148 2*3000 8348.817383 2*3000 8383.665039 3500 3000 8357.296875 3500 3000 8392.09668 4000 3000
  8363.889648 4000 3000 8398.092773 4500 3000 8368.268555 4500 3000 8402.005859 5000 3000 8370.384766 5000 3000 8404.314453 5500
  3000 8370.417969 5500 3000 8405.362305 6000 3000 8368.574219 6000 3000 8405.203125 6500 3000 8365.047852 6500 3000 8403.736328
  7000 3000 8360.006836 7000 3000 8401.005859 7500 3000 8353.244141 7500 3000 8397.100586 8000 3000 8344.915039 8000 3000
  8392.107422 8500 3000 8335.178711 8500 3000 8386.044922 9000 3000 8324.241211 9000 3000 8379.02832 9500 3000 8312.130859 9500 3000
  8371.073242 10000 3000 8298.392578 10000 3000 8361.816406 0 3500 8278.086914 0 3500 8303.901367 500 3500 8290.553711 500 3500
  8317.577148 1000 3500 8302.139648 1000 3500 8330.668945 1500 3500 8313.088867 1500 3500 8343.334961 2000 3500 8323.557617 2000
  3500 8355.548828 2500 3500 8333.470703 2500 3500 8366.9375 3000 3500 8342.49707 3000 3500 8376.90625 2*3500 8350.174805 2*3500
  8384.938477 4000 3500 8356.079102 4000 3500 8390.870117 4500 3500 8359.970703 4500 3500 8394.899414 5000 3500 8361.893555 5000
  3500 8397.375 5500 3500 8362.089844 5500 3500 8398.575195 6000 3500 8360.65918 6000 3500 8398.510742 6500 3500 8357.503906 6500
  3500 8397.003906 7000 3500 8352.538086 7000 3500 8394.287109 7500 3500 8345.963867 7500 3500 8390.632812 8000 3500 8338.02832 8000
  3500 8386.02832 8500 3500 8328.928711 8500 3500 8380.533203 9000 3500 8318.698242 9000 3500 8374.12793 9500 3500 8307.195312 9500
  3500 8366.672852 10000 3500 8294.023437 10000 3500 8357.845703 0 4000 8275.030273 0 4000 8301.105469 500 4000 8287.44043 500 4000
  8314.577148 1000 4000 8298.943359 1000 4000 8327.397461 1500 4000 8309.666992 1500 4000 8339.607422 2000 4000 8319.757812 2000
  4000 8351.208008 2500 4000 8329.198242 2500 4000 8361.973633 3000 4000 8337.738281 3000 4000 8371.478516 3500 4000 8344.988281
  3500 4000 8379.306641 2*4000 8350.574219 2*4000 8385.260742 4500 4000 8354.255859 4500 4000 8389.40625 5000 4000 8356.047852 5000
  4000 8391.952148 5500 4000 8356.308594 5500 4000 8393.161133 6000 4000 8355.001953 6000 4000 8393.001953 6500 4000 8351.864258
  6500 4000 8391.50293 7000 4000 8347.044922 7000 4000 8389.066406 7500 4000 8340.811523 7500 4000 8385.797852 8000 4000 8333.389648
  8000 4000 8381.701172 8500 4000 8324.899414 8500 4000 8376.771484 9000 4000 8315.302734 9000 4000 8370.926758 9500 4000
  8304.389648 9500 4000 8363.96582 10000 4000 8291.831055 10000 4000 8355.613281 0 4500 8272.864258 0 4500 8298.905273 500 4500
  8285.1875 500 4500 8312.172852 1000 4500 8296.581055 1000 4500 8324.722656 1500 4500 8307.116211 1500 4500 8336.547852 2000 4500
  8316.960937 2000 4500 8347.706055 2500 4500 8326.161133 2500 4500 8358.09375 3000 4500 8334.519531 3000 4500 8367.388672 3500 4500
  8341.674805 3500 4500 8375.198242 4000 4500 8347.223633 4000 4500 8381.249023 2*4500 8350.825195 2*4500 8385.463867 5000 4500
  8352.357422 5000 4500 8387.919922 5500 4500 8352.500977 5500 4500 8389.000977 6000 4500 8351.165039 6000 4500 8388.844727 6500
  4500 8348.154297 6500 4500 8387.65332 7000 4500 8343.641602 7000 4500 8385.612305 7500 4500 8337.848633 7500 4500 8382.795898 8000
  4500 8330.950195 8000 4500 8379.201172 8500 4500 8323.025391 8500 4500 8374.794922 9000 4500 8313.983398 9000 4500 8369.446289
  9500 4500 8303.598633 9500 4500 8362.9375 10000 4500 8291.623047 10000 4500 8355.050781 0 5000 8271.487305 0 5000 8297.248047 500
  5000 8283.768555 500 5000 8310.390625 1000 5000 8295.0625 1000 5000 8322.71582 1500 5000 8305.456055 1500 5000 8334.244141 2000
  5000 8315.176758 2000 5000 8345.124023 2500 5000 8324.325195 2500 5000 8355.350586 3000 5000 8332.730469 3000 5000 8364.650391
  3500 5000 8339.961914 3500 5000 8372.5625 4000 5000 8345.475586 4000 5000 8378.655273 4500 5000 8348.87207 4500 5000 8382.783203
  2*5000 8350 2*5000 8385 5500 5000 8350.107422 5500 5000 8386.092773 6000 5000 8349.010742 6000 5000 8386.293945 6500 5000
  8346.40625 6500 5000 8385.584961 7000 5000 8342.368164 7000 5000 8384.041992 7500 5000 8337.084961 7500 5000 8381.712891 8000 5000
  8330.704102 8000 5000 8378.598633 8500 5000 8323.263672 8500 5000 8374.639648 9000 5000 8314.652344 9000 5000 8369.683594 9500
  5000 8304.677734 9500 5000 8363.539062 10000 5000 8293.18457 10000 5000 8356.056641 0 5500 8270.898437 0 5500 8296.177734 500 5500
  8283.230469 500 5500 8309.326172 1000 5500 8294.461914 1000 5500 8321.504883 1500 5500 8304.777344 1500 5500 8332.848633 2000 5500
  8314.481445 2000 5500 8343.611328 2500 5500 8323.71875 2500 5500 8353.863281 3000 5500 8332.280273 3000 5500 8363.31543 3500 5500
  8339.541992 3500 5500 8371.317383 4000 5500 8344.748047 4000 5500 8377.24707 4500 5500 8347.5 4500 5500 8381 5000 5500 8348.651367
  5000 5500 8383.249023 2*5500 8349.335937 2*5500 8384.842773 6000 5500 8348.899414 6000 5500 8385.639648 6500 5500 8346.916992 6500
  5500 8385.519531 7000 5500 8343.441406 7000 5500 8384.513672 7500 5500 8338.668945 7500 5500 8382.668945 8000 5500 8332.71582 8000
  5500 8379.964844 8500 5500 8325.602539 8500 5500 8376.326172 9000 5500 8317.240234 9000 5500 8371.618164 9500 5500 8307.49707 9500
  5500 8365.702148 10000 5500 8296.31543 10000 5500 8358.506836 0 6000 8271.244141 0 6000 8295.870117 500 6000 8283.733398 500 6000
  8309.170898 1000 6000 8294.97168 1000 6000 8321.317383 1500 6000 8305.305664 1500 6000 8332.620117 2000 6000 8315.108398 2000 6000
  8343.432617 2500 6000 8324.511719 2500 6000 8353.836914 3000 6000 8333.217773 3000 6000 8363.46582 3500 6000 8340.379883 3500 6000
  8371.453125 4000 6000 8345 4000 6000 8377 4500 6000 8347.825195 4500 6000 8380.788086 5000 6000 8350.024414 5000 6000 8383.720703
  5500 6000 8351.492187 5500 6000 8385.947266 2*6000 8351.688477 2*6000 8387.336914 6500 6000 8350.246094 6500 6000 8387.765625 7000
  6000 8347.231445 7000 6000 8387.24707 7500 6000 8342.805664 7500 6000 8385.790039 8000 6000 8337.067383 8000 6000 8383.350586 8500
  6000 8330.047852 8500 6000 8379.858398 9000 6000 8321.693359 9000 6000 8375.214844 9500 6000 8311.938477 9500 6000 8369.337891
  10000 6000 8300.818359 10000 6000 8362.241211 0 6500 8272.80957 0 6500 8296.635742 500 6500 8285.539062 500 6500 8310.213867 1000
  6500 8296.885742 1000 6500 8322.461914 1500 6500 8307.375977 1500 6500 8333.905273 2000 6500 8317.402344 2000 6500 8344.941406
  2500 6500 8326.994141 2500 6500 8355.552734 3000 6500 8335.695312 3000 6500 8365.233398 3500 6500 8342.501953 3500 6500
  8373.001953 4000 6500 8347.256836 4000 6500 8378.582031 4500 6500 8351.381836 4500 6500 8383.092773 5000 6500 8354.821289 5000
  6500 8386.801758 5500 6500 8357.162109 5500 6500 8389.708008 6000 6500 8357.882812 6000 6500 8391.645508 2*6500 8356.78418 6500
  6500 8392.536133 7000 6500 8353.962891 7000 6500 8392.370117 7500 6500 8349.592773 7500 6500 8391.128906 8000 6500 8343.78418 8000
  6500 8388.766602 8500 6500 8336.576172 8500 6500 8385.219727 9000 6500 8327.942383 9000 6500 8380.416016 9500 6500 8317.87793 9500
  6500 8374.333008 10000 6500 8306.501953 10000 6500 8367.077148 0 7000 8275.960937 0 7000 8298.874023 500 7000 8288.923828 500 7000
  8312.759766 1000 7000 8300.47168 1000 7000 8325.230469 1500 7000 8311.272461 1500 7000 8337.017578 2000 7000 8321.658203 2000 7000
  8348.5 2500 7000 8331.47168 2500 7000 8359.379883 3000 7000 8340.003906 3000 7000 8369.003906 3500 7000 8346.946289 3500 7000
  8376.764648 4000 7000 8353.045898 4000 7000 8382.93457 4500 7000 8358.663086 4500 7000 8388.181641 5000 7000 8363.375 5000 7000
  8392.655273 5500 7000 8366.503906 5500 7000 8396.203125 6000 7000 8367.59375 6000 7000 8398.634766 6500 7000 8366.554687 6500 7000
  8399.858398 2*7000 8363.587891 2*7000 8399.865234 7500 7000 8358.958984 7500 7000 8398.655273 8000 7000 8352.791016 8000 7000
  8396.179687 8500 7000 8345.105469 8500 7000 8392.362305 9000 7000 8335.888672 9000 7000 8387.143555 9500 7000 8325.192383 9500
  7000 8380.569336 10000 7000 8313.210937 10000 7000 8372.84375 0 7500 8280.977539 0 7500 8302.94043 500 7500 8294.039062 500 7500
  8317.030273 1000 7500 8305.807617 1000 7500 8329.773437 1500 7500 8317.00293 1500 7500 8342.061523 2000 7500 8327.757812 2000 7500
  8354.113281 2500 7500 8337.506836 2500 7500 8365.005859 3000 7500 8346.165039 3000 7500 8374.673828 3500 7500 8354.37793 3500 7500
  8382.998047 4000 7500 8362.240234 4000 7500 8389.973633 4500 7500 8369.52832 4500 7500 8395.994141 5000 7500 8375.483398 5000 7500
  8401.180664 5500 7500 8379.31543 5500 7500 8405.336914 6000 7500 8380.56543 6000 7500 8408.182617 6500 7500 8379.268555 6500 7500
  8409.595703 7000 7500 8375.84668 7000 7500 8409.615234 2*7500 8370.689453 2*7500 8408.276367 8000 7500 8363.919922 8000 7500
  8405.512695 8500 7500 8355.509766 8500 7500 8401.213867 9000 7500 8345.436523 9000 7500 8395.323242 9500 7500 8333.798828 9500
  7500 8387.952148 10000 7500 8320.873047 10000 7500 8379.425781 0 8000 8287.958008 0 8000 8309.071289 500 8000 8300.863281 500 8000
  8323.145508 1000 8000 8312.748047 1000 8000 8336.136719 1500 8000 8324.230469 1500 8000 8348.884766 2000 8000 8335.008789 2000
  8000 8361.008789 2500 8000 8344.94043 2500 8000 8372.253906 3000 8000 8354.857422 3000 8000 8383.123047 3500 8000 8364.75293 3500
  8000 8392.277344 4000 8000 8374.501953 4000 8000 8399.87793 4500 8000 8383.444336 4500 8000 8406.427734 5000 8000 8390.614258 5000
  8000 8412.191406 5500 8000 8395.060547 5500 8000 8416.881836 6000 8000 8396.303711 6000 8000 8420.057617 6500 8000 8394.511719
  6500 8000 8421.545898 7000 8000 8390.395508 7000 8000 8421.455078 7500 8000 8384.513672 7500 8000 8419.853516 2*8000 8376.976562
  2*8000 8416.658203 8500 8000 8367.666992 8500 8000 8411.692383 9000 8000 8356.518555 9000 8000 8404.885742 9500 8000 8343.654297
  9500 8000 8396.410156 10000 8000 8329.445312 10000 8000 8386.727539 0 8500 8296.753906 0 8500 8317.339844 500 8500 8309.234375 500
  8500 8331.149414 1000 8500 8321.042969 1000 8500 8344.240234 1500 8500 8332.512695 1500 8500 8357.011719 2000 8500 8343.511719
  2000 8500 8369.738281 2500 8500 8354.801758 2500 8500 8383.480469 3000 8500 8366.368164 3000 8500 8395.977539 3500 8500
  8377.947266 3500 8500 8405.360352 4000 8500 8389.365234 4000 8500 8412.755859 4500 8500 8399.749023 4500 8500 8419.335937 5000
  8500 8408 5000 8500 8425.458008 5500 8500 8413.00293 5500 8500 8430.582031 6000 8500 8414.227539 6000 8500 8434.025391 6500 8500
  8411.775391 6500 8500 8435.46582 7000 8500 8406.825195 7000 8500 8435.155273 7500 8500 8400.142578 7500 8500 8433.186523 8000 8500
  8391.789062 8000 8500 8429.457031 2*8500 8381.485352 2*8500 8423.678711 9000 8500 8369.101562 9000 8500 8415.754883 9500 8500
  8354.728516 9500 8500 8405.871094 10000 8500 8338.893555 10000 8500 8394.673828 0 9000 8306.833008 0 9000 8327.44043 500 9000
  8318.591797 500 9000 8340.441406 1000 9000 8330.014648 1000 9000 8353.013672 1500 9000 8341.537109 1500 9000 8365.99707 2000 9000
  8353.608398 2000 9000 8381.191406 2500 9000 8366.867187 2500 9000 8398.40332 3000 9000 8380.509766 3000 9000 8413.241211 3500 9000
  8393.577148 3500 9000 8421.90918 4000 9000 8406.321289 4000 9000 8428.100586 4500 9000 8417.661133 4500 9000 8434.341797 5000 9000
  8426.698242 5000 9000 8440.667969 5500 9000 8432.18457 5500 9000 8446.104492 6000 9000 8433.619141 6000 9000 8449.783203 6500 9000
  8430.416992 6500 9000 8450.986328 7000 9000 8424.693359 7000 9000 8450.393555 7500 9000 8417.276367 7500 9000 8447.954102 8000
  9000 8408.185547 8000 9000 8443.65332 8500 9000 8396.833984 8500 9000 8436.943359 2*9000 8383.170898 2*9000 8427.84668 9500 9000
  8367.040039 9500 9000 8416.318359 10000 9000 8349.349609 10000 9000 8403.379883 0 9500 8316.804687 0 9500 8337.666992 500 9500
  8327.514648 500 9500 8349.013672 1000 9500 8338.490234 1000 9500 8360.759766 1500 9500 8350.763672 1500 9500 8375.236328 2000 9500
  8364.266602 2000 9500 8393.130859 2500 9500 8380.477539 2500 9500 8414.626953 3000 9500 8396.958984 3000 9500 8433.839844 3500
  9500 8411.066406 3500 9500 8440.422852 4000 9500 8424.920898 4000 9500 8445.358398 4500 9500 8436.230469 4500 9500 8451.250977
  5000 9500 8445.788086 5000 9500 8457.390625 5500 9500 8451.363281 5500 9500 8462.834961 6000 9500 8453.998047 6000 9500
  8466.948242 6500 9500 8449.851562 6500 9500 8467.592773 7000 9500 8443.9375 7000 9500 8466.985352 7500 9500 8435.604492 7500 9500
  8463.674805 8000 9500 8425.999023 8000 9500 8458.929687 8500 9500 8413.219727 8500 9500 8450.916992 9000 9500 8398.661133 9000
  9500 8441.088867 2*9500 8380.530273 2*9500 8427.720703 10000 9500 8361.208008 10000 9500 8413.271484 0 10000 8325.015625 0 10000
  8345.013672 500 10000 8335.013672 500 10000 8355.008789 1000 10000 8345.026367 1000 10000 8365.036133 1500 10000 8360.017578 1500
  10000 8385.019531 2000 10000 8375.041016 2000 10000 8405.042969 2500 10000 8395.029297 2500 10000 8430.03125 3000 10000
  8415.015625 3000 10000 8454.958008 3500 10000 8430.040039 3500 10000 8460.041992 4000 10000 8445.022461 4000 10000 8465.041016
  4500 10000 8455.038086 4500 10000 8470.039062 5000 10000 8465.024414 5000 10000 8475.035156 5500 10000 8470.038086 5500 10000
  8480.035156 6000 10000 8475.015625 6000 10000 8485.023437 6500 10000 8470.041992 6500 10000 8485.036133 7000 10000 8465.027344
  7000 10000 8485.020508 7500 10000 8455.040039 7500 10000 8480.03418 8000 10000 8445.018555 8000 10000 8475.011719 8500 10000
  8430.03418 8500 10000 8465.029297 9000 10000 8415.012695 9000 10000 8455.007812 9500 10000 8395.030273 9500 10000 8440.025391
  2*10000 8375.029297 2*10000 8425.025391 /

ZCORN                                  -- Generated : Petrel
  8325.01 2*8335.02 2*8345.03 2*8360.02 2*8375.04 2*8395.02 2*8415.01 2*8430.03 2*8445.01 2*8455.03 2*8465.02 2*8470.04 8475.02
  8475.02 2*8470.05 2*8465.04 2*8455.05 2*8445.03 2*8430.05 2*8415.03 2*8395.05 8375.04 8317.54 2*8326.99 2*8337.34 2*8350.23
  2*8365.28 2*8383.09 2*8400.93 2*8416.12 2*8429.21 2*8439.35 2*8447.02 2*8451.13 2*8451.76 2*8446.99 2*8440.07 2*8430.95 8419.54
  8419.54 2*8405.21 2*8389.47 2*8372.54 8355.28 8317.54 2*8326.99 2*8337.34 2*8350.23 2*8365.28 2*8383.09 2*8400.93 2*8416.12
  2*8429.21 2*8439.35 2*8447.02 2*8451.13 2*8451.76 2*8446.99 2*8440.07 2*8430.95 2*8419.54 2*8405.21 2*8389.47 2*8372.54 8355.28
  8309.05 2*8319.22 2*8329.81 2*8342.03 2*8356.22 2*8372.12 2*8388.02 2*8402.19 2*8414.04 2*8423.15 2*8429.19 2*8431.62 8430.2
  8430.2 2*8424.88 2*8417.29 2*8407.9 2*8396.61 2*8383.7 2*8370.03 2*8354.81 8338.93 8309.05 2*8319.22 2*8329.81 2*8342.03 8356.22
  8356.22 2*8372.12 2*8388.02 2*8402.19 2*8414.04 2*8423.15 2*8429.19 2*8431.62 2*8430.2 2*8424.88 2*8417.29 2*8407.9 8396.61
  8396.61 2*8383.7 2*8370.03 2*8354.81 8338.93 8300.88 2*8311.94 2*8322.92 2*8334.82 2*8348.04 2*8362.24 2*8376.29 2*8388.93 8399.4
  8399.4 2*8407.15 2*8411.74 2*8412.82 2*8410.38 2*8404.88 2*8397.35 2*8388.36 2*8378.4 2*8367.52 2*8354.5 2*8340.36 8325.19 8300.88
  2*8311.94 2*8322.92 2*8334.82 2*8348.04 2*8362.24 2*8376.29 2*8388.93 2*8399.4 2*8407.15 2*8411.74 2*8412.82 2*8410.38 8404.88
  8404.88 2*8397.35 2*8388.36 2*8378.4 2*8367.52 2*8354.5 2*8340.36 8325.19 8293.63 2*8305.36 2*8316.66 2*8328.3 2*8340.64 8353.41
  8353.41 2*8365.79 2*8376.85 2*8385.84 2*8392.22 2*8395.63 2*8395.91 2*8393.23 2*8388.12 2*8381.39 2*8373.61 2*8365.01 8354.47
  8354.47 2*8341.97 2*8328.58 8313.91 8293.63 2*8305.36 2*8316.66 2*8328.3 2*8340.64 2*8353.41 2*8365.79 2*8376.85 2*8385.84
  2*8392.22 2*8395.63 2*8395.91 2*8393.23 2*8388.12 2*8381.39 2*8373.61 2*8365.01 2*8354.47 2*8341.97 2*8328.58 8313.91 8287.37
  2*8299.54 2*8311.04 2*8322.46 2*8334.06 2*8345.64 2*8356.62 2*8366.25 2*8373.89 2*8379.11 2*8381.69 2*8381.67 2*8379.3 2*8375
  2*8369.37 2*8362.51 2*8354.05 2*8343.72 2*8331.98 2*8319.24 8305.02 8287.37 2*8299.54 2*8311.04 2*8322.46 2*8334.06 8345.64
  8345.64 2*8356.62 2*8366.25 2*8373.89 2*8379.11 2*8381.69 2*8381.67 2*8379.3 2*8375 2*8369.37 2*8362.51 2*8354.05 2*8343.72
  2*8331.98 2*8319.24 8305.02 8282.17 2*8294.58 2*8306.18 2*8317.36 2*8328.34 2*8338.97 2*8348.82 2*8357.3 2*8363.89 2*8368.27
  2*8370.38 2*8370.42 2*8368.57 2*8365.05 2*8360.01 2*8353.24 2*8344.92 2*8335.18 2*8324.24 2*8312.13 8298.39 8282.17 8294.58
  8294.58 2*8306.18 2*8317.36 2*8328.34 2*8338.97 2*8348.82 2*8357.3 2*8363.89 2*8368.27 2*8370.38 2*8370.42 2*8368.57 8365.05
  8365.05 2*8360.01 2*8353.24 2*8344.92 2*8335.18 2*8324.24 2*8312.13 8298.39 8278.09 2*8290.55 2*8302.14 2*8313.09 2*8323.56
  2*8333.47 2*8342.5 2*8350.17 2*8356.08 2*8359.97 2*8361.89 2*8362.09 2*8360.66 2*8357.5 2*8352.54 2*8345.96 2*8338.03 8328.93
  8328.93 2*8318.7 2*8307.2 8294.02 8278.09 2*8290.55 2*8302.14 2*8313.09 2*8323.56 2*8333.47 2*8342.5 2*8350.17 2*8356.08 8359.97
  8359.97 2*8361.89 2*8362.09 2*8360.66 2*8357.5 2*8352.54 2*8345.96 2*8338.03 2*8328.93 2*8318.7 2*8307.2 8294.02 8275.03 8287.44
  8287.44 2*8298.94 2*8309.67 2*8319.76 2*8329.2 2*8337.74 2*8344.99 2*8350.57 2*8354.26 2*8356.05 2*8356.31 2*8355 2*8351.86
  2*8347.04 2*8340.81 2*8333.39 2*8324.9 2*8315.3 2*8304.39 8291.83 8275.03 2*8287.44 2*8298.94 2*8309.67 2*8319.76 2*8329.2
  2*8337.74 2*8344.99 2*8350.57 2*8354.26 2*8356.05 2*8356.31 2*8355 2*8351.86 2*8347.04 2*8340.81 2*8333.39 2*8324.9 2*8315.3
  2*8304.39 8291.83 8272.86 2*8285.19 2*8296.58 2*8307.12 2*8316.96 2*8326.16 2*8334.52 2*8341.67 2*8347.22 2*8350.83 8352.36
  8352.36 2*8352.5 2*8351.17 2*8348.15 2*8343.64 2*8337.85 2*8330.95 2*8323.03 2*8313.98 2*8303.6 8291.62 8272.86 2*8285.19 8296.58
  8296.58 2*8307.12 2*8316.96 2*8326.16 2*8334.52 2*8341.67 2*8347.22 2*8350.83 2*8352.36 2*8352.5 2*8351.17 2*8348.15 8343.64
  8343.64 2*8337.85 2*8330.95 2*8323.03 2*8313.98 2*8303.6 8291.62 8271.49 2*8283.77 2*8295.06 2*8305.46 2*8315.18 2*8324.33
  2*8332.73 2*8339.96 2*8345.48 2*8348.87 2*8350 2*8350.11 2*8349.01 2*8346.41 2*8342.37 2*8337.08 2*8330.7 2*8323.26 8314.65
  8314.65 2*8304.68 8293.18 8271.49 2*8283.77 2*8295.06 2*8305.46 2*8315.18 2*8324.33 2*8332.73 2*8339.96 2*8345.48 2*8348.87 8350
  8350 2*8350.11 2*8349.01 2*8346.41 2*8342.37 2*8337.08 2*8330.7 2*8323.26 2*8314.65 2*8304.68 8293.18 8270.9 2*8283.23 8294.46
  8294.46 2*8304.78 2*8314.48 2*8323.72 2*8332.28 2*8339.54 2*8344.75 2*8347.5 2*8348.65 2*8349.34 2*8348.9 2*8346.92 8343.44
  8343.44 2*8338.67 2*8332.72 2*8325.6 2*8317.24 2*8307.5 8296.32 8270.9 2*8283.23 2*8294.46 2*8304.78 2*8314.48 2*8323.72 8332.28
  8332.28 2*8339.54 2*8344.75 2*8347.5 2*8348.65 2*8349.34 2*8348.9 2*8346.92 2*8343.44 2*8338.67 2*8332.72 2*8325.6 2*8317.24
  2*8307.5 8296.32 8271.24 2*8283.73 2*8294.97 2*8305.31 2*8315.11 2*8324.51 2*8333.22 2*8340.38 2*8345 2*8347.83 2*8350.02 8351.49
  8351.49 2*8351.69 2*8350.25 2*8347.23 2*8342.81 2*8337.07 2*8330.05 2*8321.69 2*8311.94 8300.82 8271.24 2*8283.73 2*8294.97
  2*8305.31 2*8315.11 2*8324.51 2*8333.22 2*8340.38 2*8345 2*8347.83 2*8350.02 2*8351.49 2*8351.69 2*8350.25 2*8347.23 8342.81
  8342.81 2*8337.07 2*8330.05 2*8321.69 2*8311.94 8300.82 8272.81 2*8285.54 2*8296.89 2*8307.38 2*8317.4 2*8326.99 2*8335.7 8342.5
  8342.5 2*8347.26 2*8351.38 2*8354.82 2*8357.16 2*8357.88 2*8356.78 2*8353.96 2*8349.59 2*8343.78 2*8336.58 2*8327.94 8317.88
  8317.88 8306.5 8272.81 2*8285.54 2*8296.89 2*8307.38 2*8317.4 2*8326.99 2*8335.7 2*8342.5 2*8347.26 2*8351.38 2*8354.82 8357.16
  8357.16 2*8357.88 2*8356.78 2*8353.96 2*8349.59 2*8343.78 2*8336.58 2*8327.94 2*8317.88 8306.5 8275.96 2*8288.92 2*8300.47
  2*8311.27 2*8321.66 2*8331.47 2*8340 2*8346.95 2*8353.05 2*8358.66 2*8363.37 2*8366.5 2*8367.59 2*8366.55 2*8363.59 8358.96
  8358.96 2*8352.79 2*8345.11 2*8335.89 2*8325.19 8313.21 8275.96 2*8288.92 2*8300.47 2*8311.27 2*8321.66 2*8331.47 2*8340 8346.95
  8346.95 2*8353.05 2*8358.66 2*8363.37 2*8366.5 2*8367.59 2*8366.55 2*8363.59 2*8358.96 2*8352.79 2*8345.11 2*8335.89 8325.19
  8325.19 8313.21 8280.98 2*8294.04 2*8305.81 2*8317 2*8327.76 2*8337.51 2*8346.17 2*8354.38 2*8362.24 2*8369.53 2*8375.48 8379.32
  8379.32 2*8380.57 2*8379.27 2*8375.85 2*8370.69 2*8363.92 2*8355.51 2*8345.44 2*8333.8 8320.87 8280.98 2*8294.04 2*8305.81 8317
  8317 2*8327.76 2*8337.51 2*8346.17 2*8354.38 2*8362.24 2*8369.53 2*8375.48 2*8379.32 2*8380.57 2*8379.27 2*8375.85 2*8370.69
  2*8363.92 2*8355.51 2*8345.44 2*8333.8 8320.87 8287.96 2*8300.86 2*8312.75 2*8324.23 2*8335.01 2*8344.94 2*8354.86 2*8364.75
  2*8374.5 2*8383.44 2*8390.61 2*8395.06 2*8396.3 2*8394.51 2*8390.4 2*8384.51 2*8376.98 2*8367.67 2*8356.52 2*8343.65 8329.45
  8287.96 2*8300.86 2*8312.75 2*8324.23 2*8335.01 2*8344.94 2*8354.86 2*8364.75 2*8374.5 2*8383.44 2*8390.61 2*8395.06 2*8396.3
  2*8394.51 2*8390.4 2*8384.51 2*8376.98 2*8367.67 2*8356.52 2*8343.65 8329.45 8296.75 2*8309.23 2*8321.04 2*8332.51 2*8343.51