-- This reservoir simulation deck is made available under the Open Database
-- License: http://opendatacommons.org/licenses/odbl/1.0/. Any rights in
-- individual contents of the database are licensed under the Database Contents
-- License: http://opendatacommons.org/licenses/dbcl/1.0/

-- Copyright (C) 2023 Equinor

-- This deck is testing usage of MULTFLT both in GRID and EDIT section
-- A total of 3 faults are defined with keyword FAULTS (FLT1, FLT2 and FLT3)

-- FLT1: 2 multflt records in GRID section and 1 multflt record in EDIT section.
--       Effective multflt should be last record in GRID section multiplied with multflt
--       record i EDIT section.  => 0.001 * 10.0 = 0.01
--
-- FLT2: 2 multflt records in GRID section and none in EDIT section.
--       Effective multflt should be last record in GRID section.  => 0.001
--
-- FLT3: 2 multflt records in EDIT section and none in GRID section.
--       Effective multflt should be last record in EDIT section.  => 0.005
--

------------------------------------------------------------------------------------------------

------------------------------------------------------------------------------------------------
RUNSPEC
------------------------------------------------------------------------------------------------

DIMENS
 8 9 7 /

OIL
WATER
GAS
DISGAS
VAPOIL

METRIC

START
 10 'OCT' 2018 /

--
GRIDOPTS
'YES'		0 / 


EQLDIMS
 1  100  25 /


--
REGDIMS
-- max. ntfip  nmfipr  max. nrfreg   max. ntfreg
   1          4       1*            72    /

--
--
WELLDIMS
--max.well  max.con/well  max.grup  max.w/grup
 110        100            30        30   /

--
TABDIMS
--ntsfun     ntpvt  max.nssfun  max.nppvt  max.ntfip  max.nrpvt
  1          1      50          60         4         60 /

--

VFPPDIMS
--max.rate  max.THP   max.fw   max.fg   max.ALQ    max.tabs
  25        15        15       15       0          60       /

--
VFPIDIMS
--max.rate  max.THP  max.tab
   30       20       60  /

-- needed in eclipse
FAULTDIM
 3 /

--
UNIFIN
UNIFOUT

--

------------------------------------------------------------------------------------------------
GRID
------------------------------------------------------------------------------------------------

--
NEWTRAN

--
GRIDFILE
 0  1 /

--
GRIDUNIT
 METRES  /

--
INIT



INCLUDE
'include/test_8x9x7.grdecl' /

PORO
  504*0.2 /
 
PERMX
 504*469.5 /

PERMZ
 504*210 /


COPY
 PERMX PERMY /
/

FAULTS
  'FLT1'  3 3 1 4 1 7    'X' / 
  'FLT2'  1 8 4 4 1 7    'Y' / 
  'FLT3'  5 5 5 9 1 7    'X' / 
/

MULTFLT
 'FLT1' 0.0001 /
 'FLT2' 0.0001 /
/
 

MULTFLT
 'FLT1' 0.001 /
 'FLT2' 0.001 /
/

------------------------------------------------------------------------------------------------  
EDIT
------------------------------------------------------------------------------------------------

MULTFLT
 'FLT1' 10.0 /
 'FLT3' 0.0001 /
/

MULTFLT
 'FLT3' 0.005 /
/


------------------------------------------------------------------------------------------------
PROPS
------------------------------------------------------------------------------------------------


INCLUDE
'include/PVT-WET-GAS.INC' /


INCLUDE
 'include/scal_mod2.inc' /



------------------------------------------------------------------------------------------------
REGIONS
------------------------------------------------------------------------------------------------

EQLNUM
 504*1 /
 
SATNUM
 504*1 /

EQUALS
 'FIPNUM'  1  1 3  1 4  1 7 /
 'FIPNUM'  2  4 8  1 4  1 7 /
 'FIPNUM'  3  1 5  5 9  1 7 /
 'FIPNUM'  4  6 8  5 9  1 7 /
/ 

------------------------------------------------------------------------------------------------
SOLUTION
------------------------------------------------------------------------------------------------

RPTRST
 BASIC=2 /

EQUIL
-- Datum    P     woc     Pc   goc    Pc  Rsvd  Rvvd
2281.00  268.56  2545.0   0.0  2281.00  0.0   1   0   0 /   C,D, and I segments: 		Not 2

RSVD
 2581.78  122.30
 2597.0   110.00
 2660.7   106.77
 2697.0   106.77 /


------------------------------------------------------------------------------------------------
SUMMARY
------------------------------------------------------------------------------------------------

FPR

WBHP
/

WOPR
/

BPR
 3 3 1 /
 7 2 1 /
 2 7 1 /
 7 8 1 /
/

RPR
 1 2 3 4 /
 
------------------------------------------------------------------------------------------------
SCHEDULE
------------------------------------------------------------------------------------------------

TUNING
 1.0 1.0 /
 /
 /
 
-- start: 10  'OCT' 2018 /

WELSPECS 
   'D-1H'   'TEST'   2   2  1*       'OIL'  2*      'STOP'  4* /
/

COMPDAT 
-- WELL     I   J  K1   K2            Sat.      CF        DIAM        KH SKIN ND        DIR   Ro 
   'D-1H'   2   2   1	1      'OPEN'  1*      5.505	  0.216    510.312  2*         'Z'     15.511 /
   'D-1H'   2   2   2	2      'OPEN'  1*      0.101	  0.216      9.456  2*         'Z'     16.532 /
   'D-1H'   2   2   3	3      'OPEN'  1*      4.938	  0.216    452.905  2*         'Z'     14.704 /
   'D-1H'   2   2   4	4      'OPEN'  1*     19.086	  0.216   1745.284  2*         'Z'     14.493 /
/


WCONHIST 
   'D-1H'      'OPEN'      'RESV'   3601.95 0	    617183.24  5* /
/

DATES
20 OCT 2018 /
 1 NOV 2018 /
 1 DEC 2018 /
/


END
