-- This reservoir simulation deck is made available under the Open Database
-- License: http://opendatacommons.org/licenses/odbl/1.0/. Any rights in
-- individual contents of the database are licensed under the Database Contents
-- License: http://opendatacommons.org/licenses/dbcl/1.0/

-- Copyright (C) 2018-2024 Equinor

-- This model is based on MODELXYZ05. It is for testing MULTX, MULX-, MULTY, MULTY-, MULTZ, MULTZ-
-- in the GRID EDIT Section with MULTFLT, MULTREGT etc.

-- ------------------------------------------------------------------------
-- ----------------------- BASE MODEL 1 -----------------------------------
-- ------------------------------------------------------------------------

------------------------------------------------------------------------------------------------
RUNSPEC
------------------------------------------------------------------------------------------------

DIMENS
 3 2 3  /

OIL
WATER
GAS
DISGAS
VAPOIL

METRIC

START
 01  'NOV' 2018 /

--
GRIDOPTS
 'YES'	      0 / 

EQLDIMS
 1 1*  25 /

REGDIMS
-- max. ntfip  nmfipr  max. nrfreg   max. ntfreg
   1          1       1*            1    /

WELLDIMS
--max.well  max.con/well  max.grup  max.w/grup
  1 	    3 	          3	     1   /

TABDIMS
--ntsfun     ntpvt  max.nssfun  max.nppvt  max.ntfip  max.nrpvt
  1          1      50          60         2         60 /

--
FAULTDIM
 10 /         -- max. number os fault segments


UNIFIN
UNIFOUT

--FMTOUT


------------------------------------------------------------------------------------------------
GRID
------------------------------------------------------------------------------------------------

--
NEWTRAN

--
GRIDFILE
0  1 /

--
INIT

INCLUDE
 './include/t1_3x2x3.grdecl' /

NTG
 18*0.9 /

PORO
 18*0.25 /
 
PERMX
 18*100.0 /
  
PERMZ
 18*10.0 /

COPY
 PERMX PERMY /
/

RPTGRID
 'ALLNNC' /
 

FAULTS
 'F1' 1 1  1 2  1 3 'X' /
 'F1' 2 2  1 2  1 3 'X-' /
 'F2' 1 3  1 1  1 3 'Y' /
 'F2' 1 3  2 2  1 3 'Y-' /
 'F3' 1 3  2 2  1 1 'Z' /
 'F3' 1 3  2 2  2 2 'Z-' /
/
  

MULTX
 18*0.5 / 

MULTX-
 18*2.0 / 

MULTY
 18*0.1435 / 

MULTY-
 18*2.1435 / 

MULTZ
 18*0.34325 / 

MULTZ-
 18*0.554325 / 


EQUALS
 'MULTX' 0.87794567  1 1 1 2 3 3 /  -- ok
 'MULTX-' 0.7447794567  1 1 1 2 3 3 /  -- ok
 'MULTY' 0.94567  1 1 1 2 3 3 /  -- ok
 'MULTY-' 0.6647794567  1 1 1 2 3 3 /  -- ok
 'MULTZ' 0.094567  1 2 1 2 2 2 /  -- ok
 'MULTZ-' 0.089567  1 2 1 2 2 2 /  -- ok
/


------------------------------------------------------------------------------------------------  
EDIT
------------------------------------------------------------------------------------------------


MULTX
 18*5.0 / 

MULTX-
 18*0.12345 / 

MULTY
 18*0.65345 / 

MULTY-
 18*0.43451435 / 

MULTZ
 18*2.34334325 / 

MULTZ-
 18*1.88554325 / 


EQUALS
 'MULTX' 1.34567  1 1 1 2 3 3 /  -- ok
 'MULTX-' 2.34567  1 1 1 2 3 3 /  -- ok
 'MULTY' 1.67654  1 1 1 2 3 3 /  -- ok
 'MULTY' 0.367654  1 1 1 2 3 3 /  -- ok
 'MULTZ' 0.367654  3 3 2 2 3 3 /  -- ok
 'MULTZ-' 0.0843654  3 3 1 2 3 3 /  -- ok
/


------------------------------------------------------------------------------------------------
PROPS
------------------------------------------------------------------------------------------------

NOECHO

INCLUDE
 'include/norne_pvt.inc' /

INCLUDE
 'include/rock.inc' /

INCLUDE
 'include/relperm_ow.inc' /

INCLUDE
 'include/relperm_go.inc' /


------------------------------------------------------------------------------------------------
REGIONS
------------------------------------------------------------------------------------------------



------------------------------------------------------------------------------------------------
SOLUTION
------------------------------------------------------------------------------------------------

RPTRST
  'BASIC=2' 'PBPD' /

EQUIL
-- Datum    P     woc     Pc   goc       Pc  Rsvd  Rvvd N
 2100.0  300.0  2100   0.0   1000.00  0.0   1     1   0 /  


PBVD
 1000   125.0 
 3000   125.0 
/

PDVD
 1000   125.0 
 3000   125.0 
/
 

------------------------------------------------------------------------------------------------
SUMMARY
------------------------------------------------------------------------------------------------


--INCLUDE
-- 'include/summary.inc' /


------------------------------------------------------------------------------------------------
SCHEDULE
------------------------------------------------------------------------------------------------
 
TSTEP
 0.1 /
 
END
 
