-- This reservoir simulation deck is made available under the Open Database
-- License: http://opendatacommons.org/licenses/odbl/1.0/. Any rights in
-- individual contents of the database are licensed under the Database Contents
-- License: http://opendatacommons.org/licenses/dbcl/1.0/

-- Copyright (C) 2026 Equinor

-- Model contains two downflank producers and one upflank gas injector. 
-- This deck is used to test WCONINJE + GAS + RATE.
-- Model is set up with daily injection gas rates calculated from sim GCONINJE_RESV_GAS-01

------------------------------------------------------------------------------------------------

------------------------------------------------------------------------------------------------
RUNSPEC
------------------------------------------------------------------------------------------------

DIMENS
 6 5 7 /

OIL
WATER
GAS
DISGAS
VAPOIL

METRIC

START
 10 'OCT' 2018 /

--
GRIDOPTS
'YES'		0 / 


EQLDIMS
 1 1*  25 /


--
REGDIMS
-- max. ntfip  nmfipr  max. nrfreg   max. ntfreg
   1          4       1*            1*    /

--
--
WELLDIMS
--max.well  max.con/well  max.grup  max.w/grup
  3        10           5       5   /

--
TABDIMS
--ntsfun     ntpvt  max.nssfun  max.nppvt  max.ntfip  max.nrpvt
  1          1      50          60         1         60 /

ACTDIMS
  4  1*  1*  1* /
  

--
UNIFIN
UNIFOUT

--

------------------------------------------------------------------------------------------------
GRID
------------------------------------------------------------------------------------------------

--
NEWTRAN

--
GRIDFILE
0  1/

--
GRIDUNIT
METRES  /

--
INIT



INCLUDE
'include/mod2_6x5x7.grdecl' /

PORO
 30*0.25
 30*0.22
 30*0.17
 30*0.28
 30*0.14
 30*0.23
 30*0.22 /
 
PERMX
 30*2100
 30*1200
 30*800
 30*2500
 30*10
 30*1700
 30*1200 /

PERMZ
 30*210
 30*120
 30*80
 30*250
 30*1
 30*170
 30*120 /

NTG
 30*0.95
 30*0.88
 30*0.85
 30*0.70
 30*0.14
 30*0.77
 30*0.82 /


COPY
 PERMX PERMY /
/


RPTGRID
 'ALLNNC' /

------------------------------------------------------------------------------------------------
PROPS
------------------------------------------------------------------------------------------------

NOECHO


INCLUDE
'include/PVT-WET-GAS.INC' /



INCLUDE
 'include/scal_mod2.inc' /


FILLEPS


------------------------------------------------------------------------------------------------
REGIONS
------------------------------------------------------------------------------------------------

EQLNUM
 210*1 /
 
SATNUM
 210*1 /


------------------------------------------------------------------------------------------------
SOLUTION
------------------------------------------------------------------------------------------------

RPTSOL
SWAT FIP=3 THPRES EQUIL RECOV FIPRESV /

RPTRST
 BASIC=2 'PBPD' /

EQUIL
-- Datum    P     woc     Pc    goc      Pc  Rsvd  Rvvd   N
  2515.0  269.0  2700.0   0.0  2515.00  0.0   1     1     0 /  


PDVD
 2500.0  268.0
 2515.0  269.0  /

PBVD
 2515.0  269.0 
 2700.0  264.0 /




------------------------------------------------------------------------------------------------
SUMMARY
------------------------------------------------------------------------------------------------

INCLUDE
 'include/summary-01.inc' /


------------------------------------------------------------------------------------------------
SCHEDULE
------------------------------------------------------------------------------------------------

-- start: 10  'OCT' 2018 /

TUNING
 1.0 1.0 /
 /
 / 

WELSPECS 
 'D-1H'   'TEST'   6   2  1*       'OIL'  2*      'STOP'  4* /
 'D-2H'   'TEST'   5   5  1*       'OIL'  2*      'STOP'  4* /
 'F-1H'   'TEST'   1   2  1*       'GAS'  2*      'STOP'  4* /
/

COMPDAT 
-- WELL     I   J  K1   K2         Sat.  CF   DIAM   KH  SKIN ND    DIR   Ro 
   'D-1H'   6   2   1	7   'OPEN'  1*   1*   0.216  1*   1*   1*   'Z'   1* /
   'D-2H'   5   5   1	7   'OPEN'  1*   1*   0.216  1*   1*   1*   'Z'   1* /
   'F-1H'   1   2   1	2   'OPEN'  1*   1*   0.216  1*   1*   1*   'Z'   1* /
/

WCONPROD
 'D-1H'  'OPEN' 'ORAT'  750.0   4*   75.0  /
 'D-2H'  'OPEN' 'ORAT'  750.0   4*   75.0  /
/


INCLUDE 
 'include/wconinje_gas_rate-01.inc' /
 

END
