-- Generate deck from MRST writeDeck
RUNSPEC

------------------------------------------------------
INCLUDE
dimens.txt
/

INCLUDE
eqldims.txt
/

INCLUDE
tabdims.txt
/

INCLUDE
welldims.txt
/

OIL 
WATER 
GAS 
DISGAS 
VAPOIL 
METRIC 
UNIFOUT 

START 
 06 'NOV' 2011
/
------------------------------------------------------
GRID

INIT

SPECGRID
10 10 1 1 F
/

INCLUDE
coord.txt
/

INCLUDE
zcorn.txt
/

INCLUDE
actnum.txt
/

INCLUDE
permx.txt
/

INCLUDE
permy.txt
/

INCLUDE
permz.txt
/

INCLUDE
poro.txt
/

------------------------------------------------------
------------------------------------------------------
PROPS
INCLUDE
swof.txt
/

INCLUDE
sgof.txt
/

INCLUDE
pvtw.txt
/

INCLUDE
rock.txt
/

INCLUDE
density.txt
/

INCLUDE
pvtg.txt /

INCLUDE
pvto.txt /

------------------------------------------------------
SOLUTION
INCLUDE
pressure.txt
/

INCLUDE
swat.txt
/

INCLUDE
sgas.txt
/

INCLUDE
rs.txt
/

INCLUDE
rv.txt
/

------------------------------------------------------
SUMMARY

ALL
/

------------------------------------------------------
SCHEDULE
RPTSCHED
PRES SGAS RS WELLS
/
RPTRST
BASIC=1
/
INCLUDE
welspecs.txt/

INCLUDE
compdat.txt/

INCLUDE
wconinjestep_1.txt/

INCLUDE
wconprodstep_1.txt/

INCLUDE
tstepstep_1.txt
/

INCLUDE
wconinjestep_2.txt/

INCLUDE
wconprodstep_2.txt/

INCLUDE
tstepstep_2.txt
/

INCLUDE
wconinjestep_3.txt/

INCLUDE
wconprodstep_3.txt/

INCLUDE
tstepstep_3.txt
/

INCLUDE
wconinjestep_4.txt/

INCLUDE
wconprodstep_4.txt/

INCLUDE
tstepstep_4.txt
/

INCLUDE
wconinjestep_5.txt/

INCLUDE
wconprodstep_5.txt/

INCLUDE
tstepstep_5.txt
/

INCLUDE
wconinjestep_6.txt/

INCLUDE
wconprodstep_6.txt/

INCLUDE
tstepstep_6.txt
/

INCLUDE
wconinjestep_7.txt/

INCLUDE
wconprodstep_7.txt/

INCLUDE
tstepstep_7.txt
/

INCLUDE
wconinjestep_8.txt/

INCLUDE
wconprodstep_8.txt/

INCLUDE
tstepstep_8.txt
/

INCLUDE
wconinjestep_9.txt/

INCLUDE
wconprodstep_9.txt/

INCLUDE
tstepstep_9.txt
/

INCLUDE
wconinjestep_10.txt/

INCLUDE
wconprodstep_10.txt/

INCLUDE
tstepstep_10.txt
/

INCLUDE
wconinjestep_11.txt/

INCLUDE
wconprodstep_11.txt/

INCLUDE
tstepstep_11.txt
/

INCLUDE
wconinjestep_12.txt/

INCLUDE
wconprodstep_12.txt/

INCLUDE
tstepstep_12.txt
/

INCLUDE
wconinjestep_13.txt/

INCLUDE
wconprodstep_13.txt/

INCLUDE
tstepstep_13.txt
/

INCLUDE
wconinjestep_14.txt/

INCLUDE
wconprodstep_14.txt/

INCLUDE
tstepstep_14.txt
/

INCLUDE
wconinjestep_15.txt/

INCLUDE
wconprodstep_15.txt/

INCLUDE
tstepstep_15.txt
/

