-- This reservoir simulation deck is made available under the Open Database
-- License: http://opendatacommons.org/licenses/odbl/1.0/. Any rights in
-- individual contents of the database are licensed under the Database Contents
-- License: http://opendatacommons.org/licenses/dbcl/1.0/

-- Copyright (C) 2026 Equinor

-- This deck tests usage of restarting from a STORE file (keyword RESTART item3 = STORE) 
-- The STORE file can be generated from deck BASE_STDW_STORE-01.DATA
-- This model include one producer set ut using the standard well model

------------------------------------------------------------------------------------------------

------------------------------------------------------------------------------------------------
RUNSPEC
------------------------------------------------------------------------------------------------

DIMENS
 6 5 7 /

OIL
WATER
GAS
DISGAS
VAPOIL

METRIC

START
 10 'OCT' 2018 /

--
GRIDOPTS
'YES'		0 / 


EQLDIMS
 1 1*  25 /


--
REGDIMS
-- max. ntfip  nmfipr  max. nrfreg   max. ntfreg
   1          4       1*            1*    /

--
--
WELLDIMS
--max.well  max.con/well  max.grup  max.w/grup
  2         10            3        3   /

--
TABDIMS
--ntsfun     ntpvt  max.nssfun  max.nppvt  max.ntfip  max.nrpvt
  1          1      50          60         72         60 /

--
UNIFIN
UNIFOUT

--

------------------------------------------------------------------------------------------------
GRID
------------------------------------------------------------------------------------------------

--
NEWTRAN

--
GRIDFILE
0  1/

--
GRIDUNIT
METRES  /

--
INIT



INCLUDE
'include/mod2_6x5x7.grdecl' /

PORO
 30*0.25
 30*0.22
 30*0.17
 30*0.28
 30*0.14
 30*0.23
 30*0.22 /
 
PERMX
 30*2100
 30*1200
 30*800
 30*2500
 30*10
 30*1700
 30*1200 /

PERMZ
 30*210
 30*120
 30*80
 30*250
 30*1
 30*170
 30*120 /

NTG
 30*0.95
 30*0.88
 30*0.85
 30*0.70
 30*0.14
 30*0.77
 30*0.82 /


COPY
 PERMX PERMY /
/


RPTGRID
 'ALLNNC' /

------------------------------------------------------------------------------------------------  
EDIT
------------------------------------------------------------------------------------------------

INCLUDE
 'include/edit_nnc.inc' /

-- repeted NNC, should be product of first and second entry
EDITNNC
 3 1 3  4 1 1  0.0010 /
 3 2 3  4 2 1  0.0010 /
/

------------------------------------------------------------------------------------------------
PROPS
------------------------------------------------------------------------------------------------

NOECHO


INCLUDE
'include/PVT-WET-GAS.INC' /



INCLUDE
 'include/scal_mod2.inc' /


FILLEPS


------------------------------------------------------------------------------------------------
REGIONS
------------------------------------------------------------------------------------------------

EQLNUM
 210*1 /
 
SATNUM
 210*1 /


------------------------------------------------------------------------------------------------
SOLUTION
------------------------------------------------------------------------------------------------

RESTART
 'BASE_STDW_STORE-01'  1  STORE  / -- Report step number:    1   Date: 2018/10/15
 
------------------------------------------------------------------------------------------------
SUMMARY
------------------------------------------------------------------------------------------------

INCLUDE
 'include/summary_stdw.inc' / 

------------------------------------------------------------------------------------------------
SCHEDULE
------------------------------------------------------------------------------------------------

-- start: 10  'OCT' 2018 /


WCONHIST 
   'D-1H'      'OPEN'      'RESV'   900 0	180000  5* /
/

DATES 
 20 OCT 2018 /
/

WCONHIST 
   'D-1H'      'OPEN'      'RESV'   750 0	150000  5* /
/

DATES 
 25 OCT 2018 /
/

WCONHIST 
   'D-1H'      'OPEN'      'RESV'   600.0 0	120000  5* /
/
 
DATES
 1 NOV 2018 /
/


END
