-- This reservoir simulation deck is made available under the Open Database
-- License: http://opendatacommons.org/licenses/odbl/1.0/. Any rights in
-- individual contents of the database are licensed under the Database Contents
-- License: http://opendatacommons.org/licenses/dbcl/1.0/

-- Copyright (C) 2023 NORCE

----------------------------------------------------------------------------
RUNSPEC
----------------------------------------------------------------------------
TITLE
   H2STORE

DIMENS 
20 1 20 /

EQLDIMS
/

TABDIMS
/

OIL
GAS
H2STORE
DISGAS

METRIC

START
   1 'JAN' 2019 /

WELLDIMS
   1 10 1 1 /

UNIFIN
UNIFOUT

----------------------------------------------------------------------------
GRID
----------------------------------------------------------------------------

NOECHO

INIT

DX 
  400*5 /

DY 
  400*100 /

DZ 
  400*5 /

TOPS
  20*0.0 /

PORO 
  400*0.3/

PERMX 
  400*2000/

PERMY
  400*2000/
  
PERMZ 
  400*2000/
----------------------------------------------------------------------------
PROPS
----------------------------------------------------------------------------

ROCK
  1.0 1e-6 /
  
SGOF
0	0	1	0.0
1	1 	0 	0.0 /

SALINITY
 0.7/ 35-40g/l  -> 35-40g /kg -> 0.63-0.72 mol/g

----------------------------------------------------------------------------
SOLUTION
---------------------------------------------------------------------------

EQUIL
 0 200 1000 0 0 0 1 1 0 /
    
RTEMPVD
  0 50
  100 50
/

RSVD
  0 0.0
  100 0.0 /

RPTRST
 'BASIC=2' 'ALLPROPS'/
	
----------------------------------------------------------------------------	
SUMMARY
----------------------------------------------------------------------------

BGSAT
  10 1 1 /
  10 1 10 /
/

BPR
  10 1 1 /
  10 1 10 /
/

BRS
  10 1 1 /
  10 1 10 /
/

----------------------------------------------------------------------------
SCHEDULE
----------------------------------------------------------------------------

RPTRST
 'BASIC=2' 'ALLPROPS'/

WELSPECS
-- Item #: 1	 2	3	4	5	 6
	'INJ'	'G1'	1	1	1*	'GAS' /
/
COMPDAT
-- Item #: 1	2	3	4	5	6	7	8	9
	'INJ'	1	1	20	20	'OPEN'	1*	1*	0.5 /
/

WCONINJE
-- Item #:1	 2	 3	 4	5      6  7
	'INJ'	'GAS'	'OPEN'	'RATE'	1000 1* 400 /
/

-- 30 day
TSTEP
30*1
/

END



