-- This reservoir simulation deck is made available under the Open Database
-- License: http://opendatacommons.org/licenses/odbl/1.0/. Any rights in
-- individual contents of the database are licensed under the Database Contents
-- License: http://opendatacommons.org/licenses/dbcl/1.0/

-- Copyright (C) 2021 NORCE

----------------------------------------------------------------------------
RUNSPEC
----------------------------------------------------------------------------
TITLE
   CO2STORE

DIMENS 
20 1 20 /

EQLDIMS
/

TABDIMS
/

OIL
GAS
CO2STORE
--DISGAS
--DIFFUSE
THERMAL

METRIC

START
   1 'JAN' 2019 /

WELLDIMS
   1 10 1 1 /

UNIFIN
UNIFOUT

----------------------------------------------------------------------------
GRID
----------------------------------------------------------------------------

NOECHO

INIT

DX 
  400*5 /

DY 
  400*100 /

DZ 
  400*5 /

TOPS
  20*0.0 /

PORO 
  400*0.3/

PERMX 
  400*2000/

PERMY
  400*2000/
  
PERMZ 
  400*2000/
  
THCONR
  400*260 /
  
BCCON
1 20 20 2* 2* X /
/
--
----------------------------------------------------------------------------
PROPS
----------------------------------------------------------------------------

ROCK
  1.0 1e-6 /
  
SPECROCK
 0 1.87
 100 1.87 /
  
SGOF
0	0	1	0.0
1	1 	0 	0.0 /

SALINITY
 0.7/ 35-40g/l  -> 35-40g /kg -> 0.63-0.72 mol/g

----------------------------------------------------------------------------
SOLUTION
---------------------------------------------------------------------------

EQUIL
 0 200 1000 0 0 0 1 1 0 /
    
RTEMPVD
  0 50
  100 50
/

RSVD
  0 0.0
  100 0.0 /

RPTRST
 'BASIC=2' 'ALLPROPS'/
	
----------------------------------------------------------------------------	
SUMMARY
----------------------------------------------------------------------------

ALL

BGSAT
  10 1 1 /
  10 1 10 /
/

BPR
  10 1 1 /
  10 1 10 /
/

BRS
  10 1 1 /
  10 1 10 /
/

----------------------------------------------------------------------------
SCHEDULE
----------------------------------------------------------------------------

RPTRST
 'BASIC=2' 'ALLPROPS'/

SOURCE
 1 1 1 GAS 100000 -28441391.395458 /
/

BCPROP
1 DIRICHLET OIL 1* 200.0 50 /
/

-- 30 day
TSTEP
30*30
/

END



