-- This reservoir simulation deck is made available under the Open Database
-- License: http://opendatacommons.org/licenses/odbl/1.0/. Any rights in
-- individual contents of the database are licensed under the Database Contents
-- License: http://opendatacommons.org/licenses/dbcl/1.0/

-- Copyright (C) 2024 NORCE

-- Example of a cse with CO2STORE + salt precipitation including dynamic
-- scaling of the capillary pressure using tables. This deck was generated
-- using pyopmnearwell https://github.com/daavid00/pyopmnearwell
----------------------------------------------------------------------------
RUNSPEC
----------------------------------------------------------------------------
DIMENS 
10 1 2 /

WATER
GAS
BRINE
PRECSALT
VAPWAT
CO2STORE
DISGASW

METRIC

START
1 'JAN' 2025 /

EQLDIMS
/

TABDIMS
/

WELLDIMS
1 2 1 1 /

UNIFIN
UNIFOUT
----------------------------------------------------------------------------
GRID
----------------------------------------------------------------------------
INIT

SPECGRID
10 1 2 1 F /

COORD
0.000000E+00  0.000000E+00 0 0.000000E+00  0.000000E+00 1.000000E+02
4.080993E-01 -2.356162E-01 0 4.080993E-01 -2.356162E-01 1.000000E+02
1.087703E+00 -6.279858E-01 0 1.087703E+00 -6.279858E-01 1.000000E+02
2.219442E+00 -1.281395E+00 0 2.219442E+00 -1.281395E+00 1.000000E+02
4.104117E+00 -2.369513E+00 0 4.104117E+00 -2.369513E+00 1.000000E+02
7.242649E+00 -4.181545E+00 0 7.242649E+00 -4.181545E+00 1.000000E+02
1.246922E+01 -7.199106E+00 0 1.246922E+01 -7.199106E+00 1.000000E+02
2.117298E+01 -1.222422E+01 0 2.117298E+01 -1.222422E+01 1.000000E+02
3.566727E+01 -2.059251E+01 0 3.566727E+01 -2.059251E+01 1.000000E+02
5.980450E+01 -3.452814E+01 0 5.980450E+01 -3.452814E+01 1.000000E+02
1.000000E+02 -5.773503E+01 0 1.000000E+02 -5.773503E+01 1.000000E+02
0.000000E+00  0.000000E+00 0 0.000000E+00  0.000000E+00 1.000000E+02
4.080993E-01  2.356162E-01 0 4.080993E-01  2.356162E-01 1.000000E+02
1.087703E+00  6.279858E-01 0 1.087703E+00  6.279858E-01 1.000000E+02
2.219442E+00  1.281395E+00 0 2.219442E+00  1.281395E+00 1.000000E+02
4.104117E+00  2.369513E+00 0 4.104117E+00  2.369513E+00 1.000000E+02
7.242649E+00  4.181545E+00 0 7.242649E+00  4.181545E+00 1.000000E+02
1.246922E+01  7.199106E+00 0 1.246922E+01  7.199106E+00 1.000000E+02
2.117298E+01  1.222422E+01 0 2.117298E+01  1.222422E+01 1.000000E+02
3.566727E+01  2.059251E+01 0 3.566727E+01  2.059251E+01 1.000000E+02
5.980450E+01  3.452814E+01 0 5.980450E+01  3.452814E+01 1.000000E+02
1.000000E+02  5.773503E+01 0 1.000000E+02  5.773503E+01 1.000000E+02
/

ZCORN
0.000000E+00 0.000000E+00 0.000000E+00 0.000000E+00 0.000000E+00 0.000000E+00 0.000000E+00 0.000000E+00
0.000000E+00 0.000000E+00 0.000000E+00 0.000000E+00 0.000000E+00 0.000000E+00 0.000000E+00 0.000000E+00
0.000000E+00 0.000000E+00 0.000000E+00 0.000000E+00 0.000000E+00 0.000000E+00 0.000000E+00 0.000000E+00
0.000000E+00 0.000000E+00 0.000000E+00 0.000000E+00 0.000000E+00 0.000000E+00 0.000000E+00 0.000000E+00
0.000000E+00 0.000000E+00 0.000000E+00 0.000000E+00 0.000000E+00 0.000000E+00 0.000000E+00 0.000000E+00
5.000000E+01 5.000000E+01 5.000000E+01 5.000000E+01 5.000000E+01 5.000000E+01 5.000000E+01 5.000000E+01
5.000000E+01 5.000000E+01 5.000000E+01 5.000000E+01 5.000000E+01 5.000000E+01 5.000000E+01 5.000000E+01
5.000000E+01 5.000000E+01 5.000000E+01 5.000000E+01 5.000000E+01 5.000000E+01 5.000000E+01 5.000000E+01
5.000000E+01 5.000000E+01 5.000000E+01 5.000000E+01 5.000000E+01 5.000000E+01 5.000000E+01 5.000000E+01
5.000000E+01 5.000000E+01 5.000000E+01 5.000000E+01 5.000000E+01 5.000000E+01 5.000000E+01 5.000000E+01
5.000000E+01 5.000000E+01 5.000000E+01 5.000000E+01 5.000000E+01 5.000000E+01 5.000000E+01 5.000000E+01
5.000000E+01 5.000000E+01 5.000000E+01 5.000000E+01 5.000000E+01 5.000000E+01 5.000000E+01 5.000000E+01
5.000000E+01 5.000000E+01 5.000000E+01 5.000000E+01 5.000000E+01 5.000000E+01 5.000000E+01 5.000000E+01
5.000000E+01 5.000000E+01 5.000000E+01 5.000000E+01 5.000000E+01 5.000000E+01 5.000000E+01 5.000000E+01
5.000000E+01 5.000000E+01 5.000000E+01 5.000000E+01 5.000000E+01 5.000000E+01 5.000000E+01 5.000000E+01
1.000000E+02 1.000000E+02 1.000000E+02 1.000000E+02 1.000000E+02 1.000000E+02 1.000000E+02 1.000000E+02
1.000000E+02 1.000000E+02 1.000000E+02 1.000000E+02 1.000000E+02 1.000000E+02 1.000000E+02 1.000000E+02
1.000000E+02 1.000000E+02 1.000000E+02 1.000000E+02 1.000000E+02 1.000000E+02 1.000000E+02 1.000000E+02
1.000000E+02 1.000000E+02 1.000000E+02 1.000000E+02 1.000000E+02 1.000000E+02 1.000000E+02 1.000000E+02
1.000000E+02 1.000000E+02 1.000000E+02 1.000000E+02 1.000000E+02 1.000000E+02 1.000000E+02 1.000000E+02
/

PORO 
20*0.1 /

PERMX 
20*101.3 /

COPY 
PERMX PERMY /
PERMX PERMZ /
/
----------------------------------------------------------------------------
EDIT
----------------------------------------------------------------------------
BOX
10 10 1 1 1* 1* / 
MULTPV
2*2.487840E+03 /
ENDBOX
----------------------------------------------------------------------------
PROPS
----------------------------------------------------------------------------
SGFN
0.000000E+00 0.000000E+00 0.000000E+00 
5.000000E-02 0.000000E+00 0.000000E+00 
1.277778E-01 2.591068E-03 0.000000E+00 
2.055556E-01 1.950922E-02 0.000000E+00 
2.833333E-01 6.172840E-02 0.000000E+00 
3.611111E-01 1.365645E-01 0.000000E+00 
4.388889E-01 2.476757E-01 0.000000E+00 
5.166667E-01 3.950617E-01 0.000000E+00 
5.944444E-01 5.750648E-01 0.000000E+00 
6.722222E-01 7.803688E-01 0.000000E+00 
7.500000E-01 1.000000E+00 0.000000E+00 
/

SWFN
0.000000E+00 0.000000E+00 5.841627E+00 
1.111111E-01 0.000000E+00 2.042709E+00 
2.222222E-01 0.000000E+00 7.142975E-01 
3.333333E-01 0.000000E+00 2.497766E-01 
4.444444E-01 5.953742E-03 9.467176E-02 
5.555556E-01 3.630518E-02 5.248050E-02 
6.666667E-01 1.255344E-01 3.305975E-02 
7.777778E-01 3.231560E-01 2.121955E-02 
8.888889E-01 6.939196E-01 1.224170E-02 
1.000000E+00 1.000000E+00 0.000000E+00 
/

SALTSOL
268 2153 /
/

ROCK
276 8.5E-10 /

-- Permeability factor reduction due to salt precipitation
-- (OPM FLOW keyword)
--
PERMFACT
-- PORO PERM
-- FACTOR FACTOR
0.000000E+00 8.955002E-04
3.500000E-01 8.955002E-04
4.222222E-01 2.710162E-02
4.944444E-01 8.009931E-02
5.666667E-01 1.556337E-01
6.388889E-01 2.515992E-01
7.111111E-01 3.666193E-01
7.833333E-01 4.996865E-01
8.555556E-01 6.500148E-01
9.277778E-01 8.169646E-01
1.000000E+00 1.000000E+00 /
/

-- Leverett J-function scaling due to salt precipitation
-- (OPM FLOW keyword)
--
PCFACT
-- PORO PC
-- FACTOR FACTOR
0.000000E+00 1.976975E+01
3.500000E-01 1.976975E+01
4.222222E-01 3.947053E+00
4.944444E-01 2.484531E+00
5.666667E-01 1.908148E+00
6.388889E-01 1.593522E+00
7.111111E-01 1.392711E+00
7.833333E-01 1.252058E+00
8.555556E-01 1.147262E+00
9.277778E-01 1.065664E+00
1.000000E+00 1.000000E+00 /
/
----------------------------------------------------------------------------
SOLUTION
---------------------------------------------------------------------------
EQUIL
0 96.0 0 0 0 0 1 1 0 /

SALTVD
0   138
100 138 /

RTEMPVD
0   40
100 40 /

RPTRST 
'BASIC=2' /
----------------------------------------------------------------------------
SUMMARY
----------------------------------------------------------------------------
CGIR
INJ /
/

CGIRL
INJ /
/

CPI
INJ /
/

WGIRL
'INJ' 1 /
/

CGIT
INJ /
/

CGITL
INJ /
/

WGITL
'INJ' 1 /
/

CPR
/

FPR 

FGIP

FWIP

FGIR

FWIR

FGIT

FWIT

FWCD

WGIR
/

WGIT
/

WBHP
/

WPI
/

RPR
/

RWIP
/

RGIP
/
----------------------------------------------------------------------------
SCHEDULE
----------------------------------------------------------------------------
RPTRST
'BASIC=2' /

WELSPECS
'INJ' 'G1' 1 1 1* GAS 3* /
/
COMPDAT
'INJ' 1 1 1 2 'OPEN' 2* 0.1 /
/
WCONINJE
'INJ' 'GAS' OPEN
'RATE' 2.676044E+03 1* 400 /
/
TSTEP
0.0001 /
TSTEP
2
/
