-- Generate deck from MRST writeDeck
RUNSPEC

------------------------------------------------------
INCLUDE
dimens.txt
/

INCLUDE
eqldims.txt
/

INCLUDE
tabdims.txt
/

INCLUDE
welldims.txt
/

OIL 
WATER 
GAS 
DISGAS 
VAPOIL 
METRIC 
UNIFOUT 

START 
 06 'NOV' 2011
/
------------------------------------------------------
GRID

INIT

SPECGRID
3 1 3 1 F
/

INCLUDE
coord.txt
/

INCLUDE
zcorn.txt
/

INCLUDE
actnum.txt
/

INCLUDE
permx.txt
/

INCLUDE
permy.txt
/

INCLUDE
permz.txt
/

INCLUDE
poro.txt
/

------------------------------------------------------
------------------------------------------------------
PROPS
INCLUDE
swof.txt
/

INCLUDE
sgof.txt
/

INCLUDE
pvtw.txt
/

INCLUDE
rock.txt
/

INCLUDE
density.txt
/

INCLUDE
pvtg.txt /

INCLUDE
pvto.txt /

------------------------------------------------------
SOLUTION
INCLUDE
pressure.txt
/

INCLUDE
swat.txt
/

INCLUDE
sgas.txt
/

INCLUDE
rs.txt
/

INCLUDE
rv.txt
/

------------------------------------------------------
SUMMARY

ALL
/

------------------------------------------------------
SCHEDULE
RPTSCHED
PRES SGAS RS WELLS
/
RPTRST
BASIC=1
/
INCLUDE
welspecs.txt/

INCLUDE
compdat.txt/

INCLUDE
wconinjestep_1.txt/

INCLUDE
wconprodstep_1.txt/

INCLUDE
tstepstep_1.txt
/

INCLUDE
wconinjestep_2.txt/

INCLUDE
wconprodstep_2.txt/

INCLUDE
tstepstep_2.txt
/

INCLUDE
wconinjestep_3.txt/

INCLUDE
wconprodstep_3.txt/

INCLUDE
tstepstep_3.txt
/

