-- This reservoir simulation deck is made available under the Open Database
-- License: http://opendatacommons.org/licenses/odbl/1.0/. Any rights in
-- individual contents of the database are licensed under the Database Contents
-- License: http://opendatacommons.org/licenses/dbcl/1.0/

-- Copyright (C) 2023 Equinor

-- This test case is prepared to secure implementation of JFUNC. 


-- ------------------------------------------------------------------------
-- ----------------------- BASE MODEL 1 -----------------------------------
-- ------------------------------------------------------------------------

---------------------------------------------------------------------------
RUNSPEC
---------------------------------------------------------------------------


DIMENS
 13 22 11 /


OIL
WATER
GAS
DISGAS
VAPOIL

METRIC

START
 01  'NOV' 2018 /

--
GRIDOPTS
 'YES'	      0 / 

EQLDIMS
 1 1*  25 /


ENDSCALE
-- directional reversible? NTENDP  NSENDP
  'NODIR'      'REVERS'       1       20  /


REGDIMS
-- max. ntfip  nmfipr  max. nrfreg   max. ntfreg
   2          1       1*            2    /

--
WELLDIMS
--max.well  max.con/well  max.grup  max.w/grup
 2	    15 	          3	     10   /

--
TABDIMS
--ntsfun     ntpvt  max.nssfun  max.nppvt  max.ntfip  max.nrpvt
  1           1      50          60         2         60 /



UNIFIN
UNIFOUT

------------------------------------------------------------------------------------------------
GRID
------------------------------------------------------------------------------------------------

--
NEWTRAN

--
GRIDFILE
 0  1 /
 
--
--
INIT

--

INCLUDE
 'include/mod2a_13x22x11.grdecl' /

PERMX 
  3146*32.0/

COPY 
 PERMX      PERMY  / 
 PERMX      PERMZ  / 
/

MULTIPLY
 'PERMZ' 0.1 /
/
 
PORO
  3146*0.15 /

JFUNC
 WATER  36.50  /



RPTGRID
 'ALLNNC' /
 
------------------------------------------------------------------------------------------------  
EDIT
------------------------------------------------------------------------------------------------


------------------------------------------------------------------------------------------------
PROPS
------------------------------------------------------------------------------------------------

NOECHO

INCLUDE
 'include/norne_pvt.inc' /

INCLUDE
 'include/rock.inc' /

INCLUDE
 'include/relperm_ow.inc' /

INCLUDE
 'include/relperm_go.inc' /


------------------------------------------------------------------------------------------------
REGIONS
------------------------------------------------------------------------------------------------

EQLNUM
 3146*1 / 

FIPNUM
 3146*1 / 

SATNUM
 3146*1 / 

  
------------------------------------------------------------------------------------------------
SOLUTION
------------------------------------------------------------------------------------------------


RPTRST
  'BASIC = 2' 'PBPD' 'FIP' /

EQUIL
-- Datum    P     woc     Pc   goc    Pc  Rsvd  Rvvd
 2561.59  268.55  2645.21   0.0 2561.59  0.0   1   0   0 /  

RSVD
 2561.59  122.30
 2597.0  110.00
 2660.7  106.77
 2697.0  106.77 /


------------------------------------------------------------------------------------------------
SUMMARY
------------------------------------------------------------------------------------------------


INCLUDE
 'include/summary.inc' /


------------------------------------------------------------------------------------------------
SCHEDULE
------------------------------------------------------------------------------------------------

TUNING
 1.0 5.0 /
 /
 / 
 
RPTRST
 'BASIC=2' /
  

WELSPECS
 'PROD1'  'PROD'   6    3   1*      'OIL'  0.00      'STD'     'SHUT'      'YES'    0      'SEG' /
/

COMPDAT
 'PROD1'   6   3   7   7      'OPEN'   0      6.145  0.216  1*   0.00	 0.0 'Z' 1* /
 'PROD1'   6   3   8   8      'OPEN'   0      9.703  0.216  1*   0.00	 0.0 'Z' 1* /
 'PROD1'   6   3   9   9      'OPEN'   0    184.170  0.216  1*   0.00	 0.0 'Z' 1* /
 'PROD1'   6   3   10  10     'OPEN'   0     24.709  0.216  1*   0.00	 0.0 'Z' 1* /
/

WCONPROD
 'PROD1'  'OPEN'  'ORAT'  1500.0  4*  75.0 /
/



DATES   -- 1
 1 'DEC' 2018 /
/
 
END
