-- This reservoir simulation deck is made available under the Open Database
-- License: http://opendatacommons.org/licenses/odbl/1.0/. Any rights in
-- individual contents of the database are licensed under the Database Contents
-- License: http://opendatacommons.org/licenses/dbcl/1.0/

-- Copyright (C) 2024 Equinor

-- This deck tests usage of reservoir coupling. 

-- This case is a pure history case (no prediction). The master model includes one grid cell 
-- and no wells. The master deck is used only to start the slave runs. 

------------------------------------------------------------------------------------------------

------------------------------------------------------------------------------------------------
RUNSPEC
------------------------------------------------------------------------------------------------

DIMENS
 1 1 1 /

OIL
WATER
GAS
DISGAS
VAPOIL

METRIC

START
 1  'OCT' 2018 /


EQLDIMS
 1 1*  25 /


VFPPDIMS
--max.rate  max.THP   max.fw   max.fg   max.ALQ    max.tabs
  25        15        15       15       0          60       /


--
--
WELLDIMS
--max.well  max.con/well  max.grup  max.w/grup
 5        10            10        10   /

--
TABDIMS
--ntsfun     ntpvt  max.nssfun  max.nppvt  max.ntfip  max.nrpvt
  1          1      50          60         72         60 /


--
UNIFIN
UNIFOUT

NETWORK
 5 3 /


------------------------------------------------------------------------------------------------
GRID
------------------------------------------------------------------------------------------------

--
NEWTRAN

--
GRIDFILE
 0  1 /

--
GRIDUNIT
METRES  /

--
INIT

SPECGRID
 1 1 1 1 F /

COORD
  2000.0000  2000.0000  2000.0000   2000.0000  2000.0000  2002.5000
  2100.0000  2000.0000  2000.0000   2100.0000  2000.0000  2002.5000
  2000.0000  2100.0000  2000.0000   2000.0000  2100.0000  2002.5000
  2100.0000  2100.0000  2000.0000   2100.0000  2100.0000  2002.5000
/

ZCORN
  2000.0000  2000.0000  2000.0000  2000.0000  2002.5000  2002.5000
  2002.5000  2002.5000 /


PORO
 0.25 /
  
PERMX
 2100 /

COPY
 PERMX PERMY /
 PERMX PERMZ /
/

MULTIPLY
 'PERMZ' 0.1 /
/

RPTGRID
 'ALLNNC' /

------------------------------------------------------------------------------------------------  
EDIT
------------------------------------------------------------------------------------------------


------------------------------------------------------------------------------------------------
PROPS
------------------------------------------------------------------------------------------------

NOECHO


INCLUDE
'include/PVT-WET-GAS.INC' /

INCLUDE
 'include/scal_mod2.inc' /


FILLEPS

------------------------------------------------------------------------------------------------
REGIONS
------------------------------------------------------------------------------------------------

------------------------------------------------------------------------------------------------
SOLUTION
------------------------------------------------------------------------------------------------
  
RPTRST
 BASIC=2 /

EQUIL
-- Datum    P     woc     Pc   goc      Pc  Rsvd  Rvvd  N
2300.00   300.0  2300.0   0.0  1800.00  0.0   1     1   0 /   

PBVD
 2000.0 100.0
 2300.0 100.0 /

PDVD
 2000.0 100.0
 2300.0 100.0 /
/


------------------------------------------------------------------------------------------------
SUMMARY
-----------------------------------------------------------------------------------------------

INCLUDE
 'include/summary.inc' /

------------------------------------------------------------------------------------------------
SCHEDULE
------------------------------------------------------------------------------------------------


TUNING
 1.0  5.0 /
 /
 /

INCLUDE
 'include/b1_vfp_flowline.inc' /

INCLUDE
 'include/d1_vfp_flowline.inc' /

INCLUDE
 './include/flowline_e1_vfp.inc' /


GRUPTREE
 'PLAT-A' 'FIELD' /
 
 'MOD1'   'PLAT-A' /

 'B1_M'   'MOD1' /
 'D1_M'   'MOD1' /
 'C1_M'   'MOD1' /
 
 'E1_M'   'PLAT-A' /
/

SLAVES
  'RES-1'  'RC-01_MOD1_HIST'   '*'  '../mod1'  4 /
  'RES-2'  'RC-01_MOD2_HIST'   '*'  '../mod2'  1 /
/

DATES 
 1 NOV 2018 /
 1 DEC 2018 /
 1 JAN 2019 /
/

DATES
 1 FEB 2019 /
 1 MAR 2019 /
 1 APR 2019 /
 1 MAY 2019 /
 1 JUN 2019 /
 1 JUL 2019 /
/


END
