-- This reservoir simulation deck is made available under the Open Database
-- License: http://opendatacommons.org/licenses/odbl/1.0/. Any rights in
-- individual contents of the database are licensed under the Database Contents
-- License: http://opendatacommons.org/licenses/dbcl/1.0/

-- Copyright (C) 2018 Equinor

-- This is the base case for model2. This case has standard wells, 3 producers and 2 injectors
-- This case can be used to produce the transmissibililties used in case 10_TRAN_IN_EDIT.DATA

-- ------------------------------------------------------------------------
-- ----------------------- BASE MODEL 1 -----------------------------------
-- ------------------------------------------------------------------------

------------------------------------------------------------------------------------------------
RUNSPEC
------------------------------------------------------------------------------------------------


DIMENS
 2 3 5 /


OIL
WATER
GAS
DISGAS
VAPOIL

METRIC

START
 01  'NOV' 2018 /

--
GRIDOPTS
 'YES'	      0 / 

EQLDIMS
 1 1*  25 /


REGDIMS
-- max. ntfip  nmfipr  max. nrfreg   max. ntfreg
   2          1       1*            2    /

--
WELLDIMS
--max.well  max.con/well  max.grup  max.w/grup
 10	    15 	          3	     10   /

--
TABDIMS
--ntsfun     ntpvt  max.nssfun  max.nppvt  max.ntfip  max.nrpvt
  10          1      50          60         2         60 /


VFPPDIMS
--max.rate  max.THP   max.fw   max.fg	max.ALQ    max.tabs
  40	    20        20       20	0	   60	    /


UNIFIN
UNIFOUT

------------------------------------------------------------------------------------------------
GRID
------------------------------------------------------------------------------------------------

NEWTRAN

--
GRIDFILE
0  1/

--
GRIDUNIT
METRES  /

--
INIT

INCLUDE
 'include/test1.grdecl' /

EQUALS
 'PORO'  0.25 /
 'PERMX' 10000.0 /
 'PERMY' 10000.0 /
 'PERMZ' 1000.0 /
/  

------------------------------------------------------------------------------------------------  
EDIT
------------------------------------------------------------------------------------------------



------------------------------------------------------------------------------------------------
PROPS
------------------------------------------------------------------------------------------------

NOECHO

INCLUDE
 'include/norne_pvt.inc' /

INCLUDE
 'include/rock.inc' /

INCLUDE
 'include/relperm_ow.inc' /

INCLUDE
 'include/relperm_go.inc' /


------------------------------------------------------------------------------------------------
REGIONS
------------------------------------------------------------------------------------------------

EQUALS
 'EQLNUM' 1 /
 'SATNUM' 2 /
/
 
------------------------------------------------------------------------------------------------
SOLUTION
------------------------------------------------------------------------------------------------


RPTRST
  'BASIC = 2' 'PBPD' /

EQUIL
-- Datum    P     woc     Pc   goc    Pc  Rsvd  Rvvd
 2561.59  268.55  2645.21   0.0 2561.59  0.0   1   0   0 /  

RSVD
 2561.59  122.30
 2597.0  110.00
 2660.7  106.77
 2697.0  106.77 /



------------------------------------------------------------------------------------------------
SUMMARY
------------------------------------------------------------------------------------------------

WOPR
 PROD1 /

WBHP
 PROD1 /
 

------------------------------------------------------------------------------------------------
SCHEDULE
------------------------------------------------------------------------------------------------
 
RPTRST
 'BASIC=2' /
  

-- This reservoir simulation deck is made available under the Open Database
-- License: http://opendatacommons.org/licenses/odbl/1.0/. Any rights in
-- individual contents of the database are licensed under the Database Contents
-- License: http://opendatacommons.org/licenses/dbcl/1.0/

-- Copyright (C) 2018 Equinor

-- This file is one of the include files for model2

-- start date:  01  'NOV' 2018 /
 

GRUPTREE
   'INJE'     'FIELD'  /
   'PROD'     'FIELD'  /
/


WELSPECS
 'PROD1'  'PROD'   1    2   1*      'OIL'  0.00      'STD'     'SHUT'      'YES'    0      'SEG' /
/

COMPDAT
 'PROD1'   1   2   1   1      'OPEN'   0      6.145  0.216  1*   0.00	 0.0 'Z' 1* /
/

WCONHIST
  'PROD1'  'OPEN'    'ORAT'      100.000      0.000      0.000  5* /
/


DATES   
 2 'NOV' 2018 /
/

--INCLUDE
-- 'include/hist_schedule.sch' /

 
END
