-- This reservoir simulation deck is made available under the Open Database
-- License: http://opendatacommons.org/licenses/odbl/1.0/. Any rights in
-- individual contents of the database are licensed under the Database Contents
-- License: http://opendatacommons.org/licenses/dbcl/1.0/

-- Copyright (C) 2023 Equinor

-- This deck is testing usage of SWATINIT with a mixed wettability Pc curve (no OPTIONS item 74)
-- In this case SWATINIT values that would result in a negative PCW are replaced by values found
-- from the unscaled Pc curve. 

------------------------------------------------------------------------------------------------
RUNSPEC
------------------------------------------------------------------------------------------------

DIMENS
 5 7 2 /

OIL
WATER
GAS
DISGAS
VAPOIL

METRIC

START
 1 'JAN' 2023 /

-- Enable saturation table end-point scaling
ENDSCALE
/

EQLDIMS
 1 1*  25 /

REGDIMS
-- max. ntfip  nmfipr 
   1          4       /

WELLDIMS
-- max.well  max.con.per.well  max.grup  max.w.per.grup
 110        100            30        30   /


TABDIMS
--ntsfun     ntpvt  max.nssfun  max.nppvt  max.ntfip  max.nrpvt
  1          1      200          60         72         60 /

UNIFIN
UNIFOUT

------------------------------------------------------------------------------------------------
GRID
------------------------------------------------------------------------------------------------

NEWTRAN

GRIDFILE
0  1/

GRIDUNIT
METRES  /

INIT

INCLUDE
'include/mod2_5x7x2.grdecl' /

PORO
 70*0.25 /
 
 
PERMX
 70*2100 /

PERMZ
 70*210  /


COPY
 PERMX PERMY /
/

RPTGRID
 'ALLNNC' /

------------------------------------------------------------------------------------------------  
EDIT
------------------------------------------------------------------------------------------------



------------------------------------------------------------------------------------------------
PROPS
------------------------------------------------------------------------------------------------
INCLUDE
'include/PVT-WET-GAS.INC' /

SWOF
0.30000000 0.00000000 1.00000000 2.00881800
0.31000000 0.00000080 0.99607580 1.87888230
0.32000000 0.00000160 0.99215160 1.75886597
0.33000000 0.00000770 0.98410410 1.64789896
0.34000000 0.00001710 0.97358260 1.54519722
0.35000000 0.00003300 0.96146520 1.45005321
0.36000000 0.00006890 0.94456020 1.36182765
0.37000000 0.00010490 0.92765520 1.27994219
0.38000000 0.00018930 0.90554470 1.20387299
0.39000000 0.00028080 0.88269060 1.13314497
0.40000000 0.00042070 0.85729580 1.06732683
0.41000000 0.00060900 0.82936030 1.00602652
0.42000000 0.00081660 0.80094260 0.94888731
0.43000000 0.00115810 0.76914930 0.89558421
0.44000000 0.00149960 0.73735590 0.84582089
0.45000000 0.00201080 0.70374360 0.79932684
0.46000000 0.00257850 0.66952490 0.75585484
0.47000000 0.00326560 0.63495520 0.71517882
0.48000000 0.00415150 0.59980050 0.67709174
0.49000000 0.00503750 0.56464570 0.64140390
0.50000000 0.00635370 0.52996600 0.60794127
0.51000000 0.00767000 0.49528630 0.57654408
0.52000000 0.00933690 0.46166580 0.54706551
0.53000000 0.01121430 0.42868070 0.51937052
0.54000000 0.01326850 0.39635490 0.49333480
0.55000000 0.01585290 0.36600660 0.46884383
0.56000000 0.01843730 0.33565840 0.44579202
0.57000000 0.02177340 0.30815870 0.42408192
0.58000000 0.02521680 0.28106590 0.40362354
0.59000000 0.02916200 0.25574990 0.38433372
0.60000000 0.03360880 0.23221070 0.36613552
0.61000000 0.03819570 0.20911860 0.34895775
0.62000000 0.04376320 0.18915630 0.33273444
0.63000000 0.04933080 0.16919390 0.31740445
0.64000000 0.05579000 0.15177830 0.30291108
0.65000000 0.06254640 0.13521170 0.28920169
0.66000000 0.06974760 0.11980230 0.27622736
0.67000000 0.07769020 0.10632170 0.26394265
0.68000000 0.08563270 0.09284110 0.25230529
0.69000000 0.09467200 0.08207390 0.24127594
0.70000000 0.10371130 0.07130660 0.23081794
0.71000000 0.11332260 0.06199350 -0.00383080
0.72000000 0.12327700 0.05355290 -0.00792140
0.73000000 0.13339360 0.04560170 -0.01211950
0.74000000 0.14399700 0.03911880 -0.01664040
0.75000000 0.15460030 0.03263600 -0.02116130
0.76000000 0.16548320 0.02757450 -0.02645680
0.77000000 0.17640600 0.02271610 -0.03186290
0.78000000 0.18730910 0.01852470 -0.03814940
0.79000000 0.19819240 0.01500050 -0.04531640
0.80000000 0.20902780 0.01161230 -0.05295640
0.81000000 0.21952710 0.00917670 -0.06390810
0.82000000 0.23002630 0.00674110 -0.07485970
0.83000000 0.24002880 0.00497000 -0.09325830
0.84000000 0.24986580 0.00342040 -0.11413900
0.85000000 0.25940480 0.00214280 -0.15081800
0.86000000 0.26844740 0.00131860 -0.21382740
0.87000000 0.27749000 0.00049440 -0.27683680
0.88000000 0.28629660 0.00023170 -1.25084760
0.88882080 0.29406460 0.00000000 -2.11000000
0.89000000 0.30155220 0.00000000 -2.11000010
0.90000000 0.36504750 0.00000000 -2.11000020
0.91000000 0.42854270 0.00000000 -2.11000030
0.92000000 0.49203800 0.00000000 -2.11000040
0.93000000 0.55553320 0.00000000 -2.11000060
0.94000000 0.61902850 0.00000000 -2.11000070
0.95000000 0.68252370 0.00000000 -2.11000080
0.96000000 0.74601900 0.00000000 -2.11000090
0.97000000 0.80951420 0.00000000 -2.11000100
0.98000000 0.87300950 0.00000000 -2.11000110
0.99000000 0.93650470 0.00000000 -2.11000120
1.00000000 1.00000000 0.00000000 -2.11000130
/


SGOF
--Sg      Krg	     Krog	Pcog
0.00000   0.00000    1.00000	0
0.05000   0.00000    0.73042	0
0.10000   0.01000    0.49527	0
0.15000   0.02352    0.32534	0
0.20000   0.04392    0.20934	0
0.25000   0.07225    0.13220	0
0.30000   0.10961    0.08169	0
0.35000   0.15710    0.04907	0
0.45000   0.28649    0.01554	0
0.65000   0.57565    0.00000	0
0.70000   1.00000    0.00000	0
/

INCLUDE
 './include/test1_endpoints.inc' /

FILLEPS

------------------------------------------------------------------------------------------------
REGIONS
------------------------------------------------------------------------------------------------

EQLNUM
 70*1 /
 
SATNUM
 70*1 /

------------------------------------------------------------------------------------------------
SOLUTION
------------------------------------------------------------------------------------------------

RPTSOL
SWAT FIP=3 THPRES EQUIL RECOV FIPRESV /

RPTRST
 BASIC=2 /

EQUIL
-- Datum    P     woc     Pc   goc    Pc  Rsvd  Rvvd
2550     327.0 2453.0 0 2103.000 0.0  1 1 0 /


RSVD
 2250	152.13	
 2303	152.13	
 2375	133.00	
 2453	118.00	
 2800	118.00	/

RVVD
 2103   1.0E-4 
 2800	1.0E-4	/


------------------------------------------------------------------------------------------------
SUMMARY
------------------------------------------------------------------------------------------------

DATE
-- 
WBHP
/

WOPR
/

WWCT
/

WGOR
/

FOPR

FPR


BWSAT
 4 7 1 /
/


------------------------------------------------------------------------------------------------
SCHEDULE
------------------------------------------------------------------------------------------------

TUNING
 0.1 1 /
 /
 /

WELSPECS 
   'PROD'   'TEST'   5   3  1*       'OIL'  2*      'STOP'  4* /
/

COMPDAT 
-- WELL     I	J   K1	K2	      Sat.	CF	  DIAM        KH SKIN ND	DIR    Ro 
   'PROD'   5	3   1    1      'OPEN'  1*      15.505	  0.216        510.312  2*	'Z'    15.511 /
/


WCONPROD
  'PROD'  'OPEN'  ORAT   250.0   4*   95.0 / 
/

  
DATES
 5 JAN 2023 /
/


END
  
