-- This reservoir simulation deck is made available under the Open Database
-- License: http://opendatacommons.org/licenses/odbl/1.0/. Any rights in
-- individual contents of the database are licensed under the Database Contents
-- License: http://opendatacommons.org/licenses/dbcl/1.0/

-- Copyright (C) 2023 Equinor

-- This model is testing MINPV without PINCH keyword. Grid dimension is 1x1x10, 
-- one well is completed in cell 1,1,1 and cell 1,1,2 has become inactive from
-- porevolume below threshold volume set with MINPV. 

-- Hence, cell 1,1,2 should be a barrier for vertical communication. Cell 1,1,3 to 
-- 1,1,10 should not be affected by production in cell 1,1,1. 

------------------------------------------------------------------------------------------------

------------------------------------------------------------------------------------------------
RUNSPEC
------------------------------------------------------------------------------------------------

DIMENS
 1 1 10 /

OIL
WATER
GAS
DISGAS
--VAPOIL

METRIC

START
 10 'OCT' 2018 /

--
GRIDOPTS
'YES'		0 / 


EQLDIMS
 1 1*  25 /


--
REGDIMS
-- max. ntfip  nmfipr  max. nrfreg   max. ntfreg
   1          4       1*            1*    /

--
--
WELLDIMS
--max.well  max.con/well  max.grup  max.w/grup
 110        100            30        30   /

--
TABDIMS
--ntsfun     ntpvt  max.nssfun  max.nppvt  max.ntfip  max.nrpvt
  1          1      50          60         72         60 /

--

VFPPDIMS
--max.rate  max.THP   max.fw   max.fg   max.ALQ    max.tabs
  25        15        15       15       0          60       /

--
VFPIDIMS
--max.rate  max.THP  max.tab
   30       20       60  /


--
UNIFIN
UNIFOUT

--

------------------------------------------------------------------------------------------------
GRID
------------------------------------------------------------------------------------------------

--
NEWTRAN

--
GRIDFILE
0  1/

--
GRIDUNIT
METRES  /

--
INIT

MINPV
 100 /

SPECGRID
 1 1 10 1 F /

COORD
 5892.0675 12631.7156 2439.7150 5875.5925 12625.2149 2469.5840
 5985.3382 12649.0137 2441.5910 5972.9244 12643.8201 2464.0790
 5938.2040 12541.9970 2379.2110 5636.4100 12424.5950 2918.5300
 6031.4820 12559.9940 2379.6730 5734.8840 12437.2570 2908.7270
/

ZCORN
 2447.7700 2447.2690 2439.7150 2441.5910 2451.6050 2450.9970 2443.4690 2445.1140
 2451.6050 2450.9970 2443.4690 2445.1140 2452.1210 2450.9970 2445.0030 2445.8220
 2452.1210 2450.9970 2445.0030 2445.8220 2452.1210 2450.9970 2445.4600 2445.8220
 2452.1210 2450.9970 2445.4600 2445.8220 2456.2050 2454.9250 2450.1170 2449.4580
 2456.2050 2454.9250 2450.1170 2449.4580 2459.2860 2457.6650 2454.0750 2452.5460
 2459.2860 2457.6650 2454.0750 2452.5460 2462.6090 2460.5110 2458.4050 2455.8990
 2462.6090 2460.5110 2458.4050 2455.8990 2464.9700 2462.6650 2461.6320 2458.0510
 2464.9700 2462.6650 2461.6320 2458.0510 2465.9070 2463.1880 2463.4520 2458.8530
 2465.9070 2463.1880 2463.4520 2458.8530 2467.0190 2463.7330 2465.5840 2459.8390
 2467.0190 2463.7330 2465.5840 2459.8390 2471.5460 2468.1260 2469.5840 2464.0790
/


ACTNUM
 10*1 /
  
PORO
 0.25 0.002 8*0.25 /
 
PERMX
 10*210 /

COPY
 'PERMX' 'PERMY' /
 'PERMX' 'PERMZ' /
/

MULTIPLY
 'PERMZ' 0.1 /
/
  

RPTGRID
 'ALLNNC' /

------------------------------------------------------------------------------------------------  
EDIT
------------------------------------------------------------------------------------------------


------------------------------------------------------------------------------------------------
PROPS
------------------------------------------------------------------------------------------------

NOECHO


INCLUDE
'include/example_pvt.txt' /

INCLUDE
 'include/sgof.txt' /

INCLUDE
 'include/swof.txt' /

FILLEPS


------------------------------------------------------------------------------------------------
REGIONS
------------------------------------------------------------------------------------------------

EQLNUM
 10*1 /
 
SATNUM
 10*1 /



------------------------------------------------------------------------------------------------
SOLUTION
------------------------------------------------------------------------------------------------

RPTSOL
SWAT FIP=3 THPRES EQUIL RECOV FIPRESV /

RPTRST
 BASIC=2 /

EQUIL
-- Datum    P     woc     Pc   goc    Pc  Rsvd  Rvvd
2470.00  268.56  2470.0   0.0  2000.00  0.0   1   1   0 /   C,D, and I segments: 		Not 2

RSVD
 2000.0   122.30
 2470.0   106.77 /


------------------------------------------------------------------------------------------------
SUMMARY
------------------------------------------------------------------------------------------------

DATE
-- 

WBHP
/

WOPR
/


BPR
 1 1 1 /
 1 1 2 /
 1 1 4 /
 1 1 5 /
 1 1 6 /
 1 1 7 /
 1 1 8 /
 1 1 9 /
 1 1 10 /
/
 
------------------------------------------------------------------------------------------------
SCHEDULE
------------------------------------------------------------------------------------------------

WELSPECS 
   'D-1H'   'TEST'   1   1  1*       'OIL'  2*      'STOP'  4* /
/

COMPDAT 
-- WELL     I   J  K1   K2            Sat.      CF        DIAM        KH SKIN ND        DIR   Ro 
   'D-1H'   1   1   1	1      'OPEN'  1*      5.505	  0.216    510.312  2*         'Z'     15.511 /
/

WCONPROD
  'D-1H'      'OPEN'   'ORAT'   100.0   4*  90.0 /
/ 
  

TSTEP
 0.1 0.2 0.3 0.4 1.0 1.0 1.0 2.0 2.0 2.0 /

END

 
