-- This reservoir simulation deck is made available under the Open Database
-- License: http://opendatacommons.org/licenses/odbl/1.0/. Any rights in
-- individual contents of the database are licensed under the Database Contents
-- License: http://opendatacommons.org/licenses/dbcl/1.0/

-- Copyright (C) 2023 Equinor

-- This model is used to test Z-transmissibility for a case with a fully collapsed
-- grid cell. PINCH is used with all items defaulted except for item 4 which is det to 
-- ALL. PERMZ for layer 2 is 0.0 and keyword MULTZ is not used. The collapsed cell 
-- should not act as a vertical barrier in this case (Z-transmisibility > 0.0).


------------------------------------------------------------------------------------------------
RUNSPEC
------------------------------------------------------------------------------------------------

DIMENS
 1 1 3 /

OIL
WATER
GAS
DISGAS
VAPOIL

METRIC

START
 10 'OCT' 2018 /

--
GRIDOPTS
'YES'		0 /


EQLDIMS
 1 1*  25 /


--
WELLDIMS
--max.well  max.con/well  max.grup  max.w/grup
 1         20           30        30   /

--
TABDIMS
--ntsfun     ntpvt  max.nssfun  max.nppvt  max.ntfip  max.nrpvt
  1          1      50          60         72         60 /

--

--
UNIFIN
UNIFOUT

--

------------------------------------------------------------------------------------------------
GRID
------------------------------------------------------------------------------------------------

--
NEWTRAN

--
GRIDFILE
0  1/

--
GRIDUNIT
METRES  /

--
INIT

SPECGRID
  1  1  3  1  F  /

COORD
       0.0   0.0 2000.0     0.0   0.0 2005.0
     100.0   0.0 2000.0   100.0   0.0 2005.0
       0.0 100.0 2000.0     0.0 100.0 2005.0
     100.0 100.0 2000.0   100.0 100.0 2005.0 /


ZCORN
   2000.00 2000.00 2000.00 2000.00 2003.00 2003.00 2003.00 2003.00
   2003.00 2003.00 2003.00 2003.00 2003.00 2003.00 2003.00 2003.00
   2003.00 2003.00 2003.00 2003.00 2005.00 2005.00 2005.00 2005.00  /


PORO
 3*0.25 /

PERMX
 3*2100 /

PERMZ
 210 0.0 210.0 /


COPY
 PERMX PERMY /
/

MINPV
 100.0 /

PINCH
 1* GAP 1* ALL TOP /


------------------------------------------------------------------------------------------------
EDIT
------------------------------------------------------------------------------------------------


------------------------------------------------------------------------------------------------
PROPS
------------------------------------------------------------------------------------------------

NOECHO


INCLUDE
'include/props/PVT-WET-GAS.INC' /



SWOF
 0.0 0.0 1.0 0.0
 0.8 0.7 0.0 0.0
 1.0 1.0 0.0 0.0
/

SGOF
 0.0 0.0 1.0 0.0
 0.8 1.0 0.0 0.0
/


FILLEPS


------------------------------------------------------------------------------------------------
REGIONS
------------------------------------------------------------------------------------------------

EQLNUM
 3*1 /

SATNUM
 3*1 /


------------------------------------------------------------------------------------------------
SOLUTION
------------------------------------------------------------------------------------------------

RPTSOL
SWAT FIP=3 THPRES EQUIL RECOV FIPRESV /

RPTRST
 BASIC=2 /

EQUIL
-- Datum    P     woc     Pc   goc      Pc  Rsvd  Rvvd  N
2000.00  500.56  2100.0   0.0  1281.00  0.0   1    1   0 /

RSVD
 2000.0  122.30
 2100.0  122.30 /

RVVD
 2000.0  1E-4
 2100.0  1E-4 /


------------------------------------------------------------------------------------------------
SUMMARY
------------------------------------------------------------------------------------------------

WBHP
/

WOPR
/

BPR
 1 1  1 /
 1 1  3 /
/

------------------------------------------------------------------------------------------------
SCHEDULE
------------------------------------------------------------------------------------------------


WELSPECS
   'D-1H'   'TEST'   1   1  1*       'OIL'  2*      'STOP'  4* /
/

COMPDAT
-- WELL     I   J  K1   K2            Sat.      CF        DIAM    KH SKIN ND      DIR   Ro
   'D-1H'   1   1   1	1      'OPEN'  1*       1* 	  0.216    1*  2*         'Z'    1*  /
/



WCONPROD
  'D-1H'  OPEN  ORAT  150  4*  150.0  /
/

TSTEP
 1 2 5 /


DATES
 1 NOV 2018 /
/


END
